#p m062X def2TZVP opt freq
 
33032 glutamate
 
0 1
O          3.36795        0.42118        0.08061
O          0.11469       -0.50085        2.51679
O          1.45448        1.62076       -0.11752
O         -1.66932       -1.79884        1.97340
N          1.67514       -1.70021        0.66053
C         -0.12380       -0.66490       -0.71460
C          1.38560       -0.79700       -0.45120
C         -0.96090       -0.08320        0.42790
C          2.03410        0.54287       -0.15150
C         -0.89861       -0.88695        1.70251
H         -0.52820       -1.64860       -0.98940
H         -0.26680       -0.03370       -1.60220
H          1.87246       -1.20379       -1.34558
H         -0.61776        0.93152        0.65772
H         -2.01384       -0.03682        0.12884
H          2.68085       -1.85379        0.72527
H          1.25938       -2.61255        0.47691
H          3.78592        1.28779        0.27156
H          0.14776       -1.03503        3.33890
