#p m062X def2TZVP opt freq
 
33032 glutamate
 
0 1
O          1.49451        1.13409        0.94720
O         -1.35561       -2.15407        1.54615
O          2.93723        1.05572       -0.79981
O         -0.49167       -0.44526        2.76939
N          1.67514       -1.70021        0.66053
C         -0.12380       -0.66490       -0.71460
C          1.38560       -0.79700       -0.45120
C         -0.96090       -0.08320        0.42790
C          2.03410        0.54287       -0.15150
C         -0.89861       -0.88695        1.70251
H         -0.52820       -1.64860       -0.98940
H         -0.26680       -0.03370       -1.60220
H          1.87246       -1.20379       -1.34558
H         -0.61776        0.93152        0.65772
H         -2.01384       -0.03682        0.12884
H          2.68085       -1.85379        0.72527
H          1.25938       -2.61255        0.47691
H          1.91613        1.99830        1.14100
H         -1.31532       -2.66389        2.38327
