#p m062X def2TZVP opt freq
 
33032 glutamate
 
0 1
O          1.34198       -2.22841       -2.36057
O         -1.20740        2.27240        0.13611
O          3.28667       -1.13994       -1.94451
O          0.28164        1.55503        1.69523
N          2.00247        0.48546       -0.11904
C         -0.12380       -0.66490       -0.71460
C          1.38560       -0.79700       -0.45120
C         -0.96090       -0.08320        0.42790
C          2.12556       -1.38218       -1.64101
C         -0.55491        1.31098        0.83526
H         -0.52820       -1.64860       -0.98940
H         -0.26680       -0.03370       -1.60220
H          1.54470       -1.47236        0.39792
H         -2.01550       -0.04951        0.13309
H         -0.86632       -0.71748        1.31616
H          2.97057        0.33780        0.16415
H          1.52969        0.89375        0.68639
H          1.82053       -2.60365       -3.13021
H         -0.93007        3.17374        0.40630
