#p m062X def2TZVP opt freq
 
33032 glutamate
 
0 1
O          1.16947        1.40282        0.44912
O         -2.11588       -1.33131        2.10212
O          3.19353        0.84341       -0.40523
O          0.13465       -1.10781        2.32099
N          1.67514       -1.70021        0.66053
C         -0.12380       -0.66490       -0.71460
C          1.38560       -0.79700       -0.45120
C         -0.96090       -0.08320        0.42790
C          2.03410        0.54287       -0.15150
C         -0.89861       -0.88695        1.70251
H         -0.52820       -1.64860       -0.98940
H         -0.26680       -0.03370       -1.60220
H          1.87246       -1.20379       -1.34558
H         -0.61776        0.93152        0.65772
H         -2.01384       -0.03682        0.12884
H          2.68085       -1.85379        0.72527
H          1.25938       -2.61255        0.47691
H          1.59051        2.26698        0.64437
H         -2.06226       -1.84714        2.93481
