#p m062X def2TZVP opt freq
 
33032 glutamate
 
0 1
O          2.61136        0.56405        1.07902
O         -3.03563        1.04413        0.77344
O          2.05425        1.50684       -0.90603
O         -3.02667       -0.73389       -0.64123
N          1.67514       -1.70021        0.66053
C         -0.12380       -0.66490       -0.71460
C          1.38560       -0.79700       -0.45120
C         -0.96090       -0.08320        0.42790
C          2.03410        0.54287       -0.15150
C         -2.43240        0.02350        0.11516
H         -0.52820       -1.64860       -0.98940
H         -0.26680       -0.03370       -1.60220
H          1.87246       -1.20379       -1.34558
H         -0.85529       -0.71061        1.31977
H         -0.60959        0.92654        0.66722
H          2.68085       -1.85379        0.72527
H          1.25938       -2.61255        0.47691
H          3.03201        1.42931        1.27017
H         -3.99288        1.09878        0.56606
