#p m062X def2TZVP opt freq
 
33032 glutamate
 
0 1
O          0.54776       -2.18939        1.29688
O          0.49223        1.78367        0.11488
O          2.80004       -1.97409        1.15363
O         -1.10009        1.94799        1.72741
N          2.10501       -1.31854       -1.61138
C         -0.12380       -0.66490       -0.71460
C          1.38560       -0.79700       -0.45120
C         -0.96090       -0.08320        0.42790
C          1.68349       -1.69928        0.73319
C         -0.55491        1.31098        0.83526
H         -0.52820       -1.64860       -0.98940
H         -0.26680       -0.03370       -1.60220
H          1.79844        0.19249       -0.22117
H         -2.01550       -0.04951        0.13309
H         -0.86632       -0.71748        1.31616
H          3.10904       -1.27791       -1.43965
H          1.93020       -0.72143       -2.41874
H          0.74186       -2.77403        2.06022
H          0.74996        2.68823        0.39356
