#p m062X def2TZVP opt freq
 
33032 glutamate
 
0 1
O          2.35988       -1.04414        1.71356
O         -0.80160        1.56761        2.14377
O          1.36496       -2.87778        0.82613
O         -0.06597        2.13136        0.06921
N          2.10501       -1.31854       -1.61138
C         -0.12380       -0.66490       -0.71460
C          1.38560       -0.79700       -0.45120
C         -0.96090       -0.08320        0.42790
C          1.68349       -1.69928        0.73319
C         -0.55491        1.31098        0.83526
H         -0.52820       -1.64860       -0.98940
H         -0.26680       -0.03370       -1.60220
H          1.79844        0.19249       -0.22117
H         -2.01550       -0.04951        0.13309
H         -0.86632       -0.71748        1.31616
H          3.10904       -1.27791       -1.43965
H          1.93020       -0.72143       -2.41874
H          2.54937       -1.62755        2.47900
H         -0.53873        2.47894        2.39418
