#p m062X def2TZVP opt freq
 
33032 glutamate
 
0 1
O          2.82940       -1.33999        1.37009
O         -3.20216       -0.70678        0.95959
O          0.99429       -2.64309        1.09815
O         -2.88832        0.68661       -0.80753
N          2.10501       -1.31854       -1.61138
C         -0.12380       -0.66490       -0.71460
C          1.38560       -0.79700       -0.45120
C         -0.96090       -0.08320        0.42790
C          1.68349       -1.69928        0.73319
C         -2.43240        0.02350        0.11516
H         -0.52820       -1.64860       -0.98940
H         -0.26680       -0.03370       -1.60220
H          1.79844        0.19249       -0.22117
H         -0.85529       -0.71061        1.31977
H         -0.60959        0.92654        0.66722
H          3.10904       -1.27791       -1.43965
H          1.93020       -0.72143       -2.41874
H          3.01917       -1.92215        2.13641
H         -4.15584       -0.63354        0.74178
