#p m062X def2TZVP opt freq
 
6305 tryptophan
 
0 1
O          4.19329        1.95165       -1.61971
O          4.86541        0.26891       -0.25501
N         -1.64740        2.00440        0.54820
N          2.57180        2.56476        0.60602
C          0.14750        1.13230       -0.42360
C          1.50650        0.98450       -0.98300
C         -0.86670        0.13490       -0.38590
C          2.64199        1.21674        0.04663
C         -1.98230        0.70780        0.22860
C         -0.36250        2.27020        0.15790
C         -0.94310       -1.20450       -0.81690
C         -3.17510        0.00550        0.43460
C          4.01394        1.08210       -0.59152
C         -2.12980       -1.91930       -0.61760
C         -3.22740       -1.32160       -0.00120
H          1.60959       -0.01768       -1.42134
H          1.63171        1.68901       -1.81673
H          2.56487        0.49647        0.86995
H          0.07230        3.24490        0.33040
H         -2.26200        2.66390        1.00510
H         -0.10010       -1.68640       -1.30350
H         -4.03010        0.46990        0.91430
H         -2.19480       -2.95220       -0.94900
H          3.26198        2.66430        1.34971
H          1.66180        2.70611        1.04312
H         -4.13930       -1.89530        0.14340
H          5.07735        1.85169       -2.03280
