#p m062X def2TZVP opt freq
 
6305 tryptophan
 
0 1
O          2.01933       -0.96329        0.81020
O          2.95109        0.43610        2.33312
N         -1.64740        2.00440        0.54820
N          3.95340        1.05524       -0.57715
C          0.14750        1.13230       -0.42360
C          1.50650        0.98450       -0.98300
C         -0.86670        0.13490       -0.38590
C          2.64199        1.21674        0.04663
C         -1.98230        0.70780        0.22860
C         -0.36250        2.27020        0.15790
C         -0.94310       -1.20450       -0.81690
C         -3.17510        0.00550        0.43460
C          2.57756        0.21621        1.18786
C         -2.12980       -1.91930       -0.61760
C         -3.22740       -1.32160       -0.00120
H          1.60959       -0.01768       -1.42134
H          1.63171        1.68901       -1.81673
H          2.57961        2.22941        0.46282
H          0.07230        3.24490        0.33040
H         -2.26200        2.66390        1.00510
H         -0.10010       -1.68640       -1.30350
H         -4.03010        0.46990        0.91430
H         -2.19480       -2.95220       -0.94900
H          4.68350        1.30815        0.08793
H          4.04293        1.70544       -1.35712
H         -4.13930       -1.89530        0.14340
H          1.97214       -1.60018        1.55474
