#p m062X def2TZVP opt freq
 
6305 tryptophan
 
0 1
O          3.76912        2.35524       -2.81518
O          4.73531        1.64948       -0.88797
N         -1.64740        2.00440        0.54820
N          1.75985        3.37917       -1.58168
C          0.14750        1.13230       -0.42360
C          1.50650        0.98450       -0.98300
C         -0.86670        0.13490       -0.38590
C          2.37784        2.26188       -0.87123
C         -1.98230        0.70780        0.22860
C         -0.36250        2.27020        0.15790
C         -0.94310       -1.20450       -0.81690
C         -3.17510        0.00550        0.43460
C          3.75077        2.06013       -1.48927
C         -2.12980       -1.91930       -0.61760
C         -3.22740       -1.32160       -0.00120
H          2.01490        0.14988       -0.48094
H          1.43161        0.69546       -2.04034
H          2.50394        2.54802        0.17987
H          0.07230        3.24490        0.33040
H         -2.26200        2.66390        1.00510
H         -0.10010       -1.68640       -1.30350
H         -4.03010        0.46990        0.91430
H         -2.19480       -2.95220       -0.94900
H          2.29473        4.23072       -1.41400
H          0.82853        3.55055       -1.20433
H         -4.13930       -1.89530        0.14340
H          4.65619        2.21292       -3.20894
