#p m062X def2TZVP opt freq
 
6305 tryptophan
 
0 1
O          4.37867        1.64434       -1.21057
O          3.79254        2.29321       -3.30369
N         -1.64740        2.00440        0.54820
N          1.26964        2.82795       -2.62697
C          0.14750        1.13230       -0.42360
C          1.50650        0.98450       -0.98300
C         -0.86670        0.13490       -0.38590
C          2.10265        2.29870       -1.54949
C         -1.98230        0.70780        0.22860
C         -0.36250        2.27020        0.15790
C         -0.94310       -1.20450       -0.81690
C         -3.17510        0.00550        0.43460
C          3.48599        2.07930       -2.13760
C         -2.12980       -1.91930       -0.61760
C         -3.22740       -1.32160       -0.00120
H          2.17447        0.58409       -0.20801
H          1.48791        0.22875       -1.78025
H          2.17196        3.05810       -0.76139
H          0.07230        3.24490        0.33040
H         -2.26200        2.66390        1.00510
H         -0.10010       -1.68640       -1.30350
H         -4.03010        0.46990        0.91430
H         -2.19480       -2.95220       -0.94900
H          1.62232        3.73924       -2.91768
H          0.32415        2.98724       -2.28082
H         -4.13930       -1.89530        0.14340
H          5.27147        1.51471       -1.59567
