#p m062X def2TZVP opt freq
 
6305 tryptophan
 
0 1
O          2.37444        2.56415        2.00525
O          2.63762        3.65246        0.03242
N         -1.64740        2.00440        0.54820
N          2.54787        0.26484        1.15118
C          0.14750        1.13230       -0.42360
C          1.50650        0.98450       -0.98300
C         -0.86670        0.13490       -0.38590
C          2.64199        1.21674        0.04663
C         -1.98230        0.70780        0.22860
C         -0.36250        2.27020        0.15790
C         -0.94310       -1.20450       -0.81690
C         -3.17510        0.00550        0.43460
C          2.56687        2.60399        0.66106
C         -2.12980       -1.91930       -0.61760
C         -3.22740       -1.32160       -0.00120
H          1.60959       -0.01768       -1.42134
H          1.63171        1.68901       -1.81673
H          3.62180        1.09622       -0.43092
H          0.07230        3.24490        0.33040
H         -2.26200        2.66390        1.00510
H         -0.10010       -1.68640       -1.30350
H         -4.03010        0.46990        0.91430
H         -2.19480       -2.95220       -0.94900
H          3.35642        0.36825        1.76346
H          2.58820       -0.68628        0.78665
H         -4.13930       -1.89530        0.14340
H          2.31699        3.46337        2.39295
