#p m062X def2TZVP opt freq
 
6305 tryptophan
 
0 1
O          1.54276        3.64998       -1.50116
O          2.53567        4.18132        0.46800
N         -1.64740        2.00440        0.54820
N          2.67876        1.53729        1.13296
C          0.14750        1.13230       -0.42360
C          1.50650        0.98450       -0.98300
C         -0.86670        0.13490       -0.38590
C          2.57525        1.86586       -0.28701
C         -1.98230        0.70780        0.22860
C         -0.36250        2.27020        0.15790
C         -0.94310       -1.20450       -0.81690
C         -3.17510        0.00550        0.43460
C          2.22392        3.34159       -0.36697
C         -2.12980       -1.91930       -0.61760
C         -3.22740       -1.32160       -0.00120
H          1.80814       -0.07039       -0.92506
H          1.48424        1.22995       -2.05369
H          3.55763        1.71266       -0.74969
H          0.07230        3.24490        0.33040
H         -2.26200        2.66390        1.00510
H         -0.10010       -1.68640       -1.30350
H         -4.03010        0.46990        0.91430
H         -2.19480       -2.95220       -0.94900
H          3.45188        2.05491        1.54973
H          2.90888        0.54991        1.23909
H         -4.13930       -1.89530        0.14340
H          1.32845        4.60595       -1.55016
