#p m062X def2TZVP opt freq
 
6305 tryptophan
 
0 1
O          2.53299        3.95817       -2.55106
O          0.63963        3.91281       -1.30252
N         -1.64740        2.00440        0.54820
N          2.55024        2.65567        0.52526
C          0.14750        1.13230       -0.42360
C          1.50650        0.98450       -0.98300
C         -0.86670        0.13490       -0.38590
C          2.37784        2.26188       -0.87123
C         -1.98230        0.70780        0.22860
C         -0.36250        2.27020        0.15790
C         -0.94310       -1.20450       -0.81690
C         -3.17510        0.00550        0.43460
C          1.73581        3.44249       -1.57944
C         -2.12980       -1.91930       -0.61760
C         -3.22740       -1.32160       -0.00120
H          2.01490        0.14988       -0.48094
H          1.43161        0.69546       -2.04034
H          3.36937        2.08771       -1.30613
H          0.07230        3.24490        0.33040
H         -2.26200        2.66390        1.00510
H         -0.10010       -1.68640       -1.30350
H         -4.03010        0.46990        0.91430
H         -2.19480       -2.95220       -0.94900
H          3.20446        3.43534        0.58393
H          2.97515        1.88935        1.04617
H         -4.13930       -1.89530        0.14340
H          2.11583        4.72602       -2.99668
