#p m062X def2TZVP opt freq
 
6305 tryptophan
 
0 1
O          1.53607        2.34588        1.36655
O          3.58308        3.25191        0.99965
N         -1.64740        2.00440        0.54820
N          3.70367        2.04122       -1.44437
C          0.14750        1.13230       -0.42360
C          1.50650        0.98450       -0.98300
C         -0.86670        0.13490       -0.38590
C          2.37784        2.26188       -0.87123
C         -1.98230        0.70780        0.22860
C         -0.36250        2.27020        0.15790
C         -0.94310       -1.20450       -0.81690
C         -3.17510        0.00550        0.43460
C          2.59264        2.66940        0.57632
C         -2.12980       -1.91930       -0.61760
C         -3.22740       -1.32160       -0.00120
H          2.01490        0.14988       -0.48094
H          1.43161        0.69546       -2.04034
H          1.90503        3.09521       -1.40473
H          0.07230        3.24490        0.33040
H         -2.26200        2.66390        1.00510
H         -0.10010       -1.68640       -1.30350
H         -4.03010        0.46990        0.91430
H         -2.19480       -2.95220       -0.94900
H          4.22491        2.91734       -1.45134
H          3.61144        1.75855       -2.41942
H         -4.13930       -1.89530        0.14340
H          1.67810        2.62114        2.29728
