#p m062X def2TZVP opt freq
 
6305 tryptophan
 
0 1
O          1.50396       -0.41773        1.91338
O          3.42375        0.77014        1.69181
N         -1.64740        2.00440        0.54820
N          1.70827       -1.42853       -0.44112
C          0.14750        1.13230       -0.42360
C          1.50650        0.98450       -0.98300
C         -0.86670        0.13490       -0.38590
C          2.35173       -0.12383       -0.30432
C         -1.98230        0.70780        0.22860
C         -0.36250        2.27020        0.15790
C         -0.94310       -1.20450       -0.81690
C         -3.17510        0.00550        0.43460
C          2.51322        0.12689        1.18520
C         -2.12980       -1.91930       -0.61760
C         -3.22740       -1.32160       -0.00120
H          1.43347        0.78081       -2.06018
H          2.03825        1.94198       -0.89591
H          3.34697       -0.17970       -0.76147
H          0.07230        3.24490        0.33040
H         -2.26200        2.66390        1.00510
H         -0.10010       -1.68640       -1.30350
H         -4.03010        0.46990        0.91430
H         -2.19480       -2.95220       -0.94900
H          2.32421       -2.15500       -0.07752
H          1.57244       -1.64038       -1.42895
H         -4.13930       -1.89530        0.14340
H          1.61004       -0.24301        2.87276
