#p m062X def2TZVP opt freq
 
6305 tryptophan
 
0 1
O          0.58840        1.91812       -3.36209
O          1.13395        4.07276       -2.90863
N         -1.64740        2.00440        0.54820
N          2.19676        3.32031       -0.50909
C          0.14750        1.13230       -0.42360
C          1.50650        0.98450       -0.98300
C         -0.86670        0.13490       -0.38590
C          2.10265        2.29870       -1.54949
C         -1.98230        0.70780        0.22860
C         -0.36250        2.27020        0.15790
C         -0.94310       -1.20450       -0.81690
C         -3.17510        0.00550        0.43460
C          1.23332        2.87966       -2.65147
C         -2.12980       -1.91930       -0.61760
C         -3.22740       -1.32160       -0.00120
H          2.17447        0.58409       -0.20801
H          1.48791        0.22875       -1.78025
H          3.10748        2.12088       -1.95114
H          0.07230        3.24490        0.33040
H         -2.26200        2.66390        1.00510
H         -0.10010       -1.68640       -1.30350
H         -4.03010        0.46990        0.91430
H         -2.19480       -2.95220       -0.94900
H          2.68046        4.13968       -0.87515
H          2.76924        2.97314        0.25959
H         -4.13930       -1.89530        0.14340
H          0.03728        2.30048       -4.07781
