#p m062X def2TZVP opt freq
 
750 glycine
 
0 1
O         -1.30250        0.15190       -1.06175
O         -0.74916       -0.90571        0.87139
N          1.90060       -0.08120       -0.00900
C          0.73410        0.78670        0.00790
C         -0.50230       -0.06910        0.01200
H          0.73260        1.42150       -0.88240
H          0.74640        1.40880        0.90690
H          1.87430       -0.68440       -0.83010
H          1.88870       -0.69690        0.80310
H         -2.09453       -0.42692       -1.05314
