#p m062X def2TZVP opt freq
 
6057 tyrosine
 
0 1
O          0.45725        2.93283        1.73057
O          4.21830       -0.63510       -0.39470
O         -0.49719        4.68152        0.64594
N         -1.14824        2.49602       -1.19353
C         -1.04930        1.02100        0.76330
C         -1.35646        2.43688        0.25146
C          0.36180        0.57740        0.45290
C          0.78030       -0.67980        0.85530
C          1.20770        1.43730       -0.22760
C         -0.43718        3.47849        0.86592
C          2.08270       -1.08910        0.56900
C          2.51010        1.02800       -0.51410
C          2.94760       -0.23530       -0.11580
H         -1.76075        0.29384        0.34805
H         -1.18464        0.97051        1.85288
H         -2.39589        2.72495        0.44692
H          0.11580       -1.35120        1.39140
H          0.87520        2.42170       -0.54400
H         -1.78042        1.84357       -1.65625
H         -0.20629        2.17799       -1.42099
H          2.41140       -2.07540        0.88530
H          3.17900        1.69730       -1.04820
H          1.03865        3.61286        2.13274
H          4.34940       -1.53390       -0.04670
