#p m062X def2TZVP opt freq
 
6057 tyrosine
 
0 1
O         -4.33539        0.07220        0.04224
O          4.21830       -0.63510       -0.39470
O         -3.79902        2.27349        0.15169
N         -1.67321        1.32566       -1.58884
C         -1.04930        1.02100        0.76330
C         -2.04789        0.65533       -0.34582
C          0.36180        0.57740        0.45290
C          0.78030       -0.67980        0.85530
C          1.20770        1.43730       -0.22760
C         -3.45960        1.10902       -0.01592
C          2.08270       -1.08910        0.56900
C          2.51010        1.02800       -0.51410
C          2.94760       -0.23530       -0.11580
H         -1.36311        0.59448        1.72609
H         -1.03220        2.10890        0.91902
H         -2.06137       -0.42277       -0.54364
H          0.11580       -1.35120        1.39140
H          0.87520        2.42170       -0.54400
H         -0.74578        1.01574       -1.87739
H         -1.59310        2.32993       -1.43019
H          2.41140       -2.07540        0.88530
H          3.17900        1.69730       -1.04820
H         -5.24679        0.37428        0.24300
H          4.34940       -1.53390       -0.04670
