#p m062X def2TZVP opt freq
 
6057 tyrosine
 
0 1
O         -0.25761        3.46238       -1.60977
O          4.21830       -0.63510       -0.39470
O         -1.85011        1.91581       -2.07602
N         -2.74480        2.78018        0.55062
C         -1.04930        1.02100        0.76330
C         -1.35646        2.43688        0.25146
C          0.36180        0.57740        0.45290
C          0.78030       -0.67980        0.85530
C          1.20770        1.43730       -0.22760
C         -1.19659        2.54698       -1.25516
C          2.08270       -1.08910        0.56900
C          2.51010        1.02800       -0.51410
C          2.94760       -0.23530       -0.11580
H         -1.76075        0.29384        0.34805
H         -1.18464        0.97051        1.85288
H         -0.72003        3.19063        0.72941
H          0.11580       -1.35120        1.39140
H          0.87520        2.42170       -0.54400
H         -2.89002        2.76541        1.55965
H         -3.36742        2.06751        0.17038
H          2.41140       -2.07540        0.88530
H          3.17900        1.69730       -1.04820
H         -0.16921        3.53694       -2.58385
H          4.34940       -1.53390       -0.04670
