#p m062X def2TZVP opt freq
 
6057 tyrosine
 
0 1
O         -3.53652        0.95535        2.32879
O          4.21830       -0.63510       -0.39470
O         -4.43122        0.12259        0.41795
N         -2.10148       -0.81175       -0.48113
C         -1.04930        1.02100        0.76330
C         -2.04427       -0.14858        0.81956
C          0.36180        0.57740        0.45290
C          0.78030       -0.67980        0.85530
C          1.20770        1.43730       -0.22760
C         -3.45602        0.31682        1.13247
C          2.08270       -1.08910        0.56900
C          2.51010        1.02800       -0.51410
C          2.94760       -0.23530       -0.11580
H         -1.05626        1.58403        1.70686
H         -1.35119        1.74311       -0.00838
H         -1.74873       -0.90053        1.56039
H          0.11580       -1.35120        1.39140
H          0.87520        2.42170       -0.54400
H         -1.18164       -1.18418       -0.71489
H         -2.31761       -0.13003       -1.20823
H          2.41140       -2.07540        0.88530
H          3.17900        1.69730       -1.04820
H         -4.45305        1.24146        2.52959
H          4.34940       -1.53390       -0.04670
