#p m062X def2TZVP opt freq
 
5960 aspartic
 
0 1
O          2.07511       -0.27953       -1.19982
O         -0.13405        2.78994       -1.64767
O          1.02420       -1.75453        0.16597
O         -0.61227        0.72408       -2.47265
N          1.74450        1.67880        0.40550
C          0.72720        0.63750        0.54990
C         -0.59570        1.11590       -0.06130
C          1.27480       -0.59800       -0.14700
C         -0.46054        1.47745       -1.52295
H          0.60510        0.41580        1.61660
H         -0.94302        2.00592        0.47985
H         -1.36737        0.34199        0.02086
H          2.59320        1.39920        0.89650
H          1.42470        2.53410        0.85860
H          2.41785       -1.07934       -1.65266
H         -0.03704        3.05484       -2.58716
