#p m062X def2TZVP opt freq
 
5960 aspartic
 
0 1
O          0.45775       -1.02637       -1.14665
O          0.82007        1.28383       -1.93199
O          2.31344       -1.17384        0.14954
O         -1.35130        1.88233       -2.25448
N          1.74450        1.67880        0.40550
C          0.72720        0.63750        0.54990
C         -0.59570        1.11590       -0.06130
C          1.27480       -0.59800       -0.14700
C         -0.46054        1.47745       -1.52295
H          0.60510        0.41580        1.61660
H         -0.94302        2.00592        0.47985
H         -1.36737        0.34199        0.02086
H          2.59320        1.39920        0.89650
H          1.42470        2.53410        0.85860
H          0.80963       -1.82937       -1.58666
H          0.93916        1.50850       -2.87940
