#p m062X def2TZVP opt freq
 
5960 aspartic
 
0 1
O          1.42650       -1.64392        0.70939
O         -1.34971        2.45286       -1.84346
O          1.57412       -0.66587       -1.33195
O          0.32350        0.98682       -2.32113
N          1.74450        1.67880        0.40550
C          0.72720        0.63750        0.54990
C         -0.59570        1.11590       -0.06130
C          1.27480       -0.59800       -0.14700
C         -0.46054        1.47745       -1.52295
H          0.60510        0.41580        1.61660
H         -0.94302        2.00592        0.47985
H         -1.36737        0.34199        0.02086
H          2.59320        1.39920        0.89650
H          1.42470        2.53410        0.85860
H          1.78954       -2.43550        0.25789
H         -1.28460        2.71104       -2.78757
