#p m062X def2TZVP opt freq
 
5960 aspartic
 
0 1
O          0.42506       -1.65628       -0.05560
O          0.44734        2.47670       -1.67139
O          2.35849       -0.66801       -0.71181
O         -1.06103        0.96403       -2.45479
N          1.74450        1.67880        0.40550
C          0.72720        0.63750        0.54990
C         -0.59570        1.11590       -0.06130
C          1.27480       -0.59800       -0.14700
C         -0.46054        1.47745       -1.52295
H          0.60510        0.41580        1.61660
H         -0.94302        2.00592        0.47985
H         -1.36737        0.34199        0.02086
H          2.59320        1.39920        0.89650
H          1.42470        2.53410        0.85860
H          0.78673       -2.45385       -0.49755
H          0.55882        2.73262       -2.61177
