#p m062X def2TZVP opt freq
 
5960 aspartic
 
0 1
O          1.49188       -0.38411       -1.47270
O         -1.29783       -1.04925       -0.65393
O          1.48402       -1.67751        0.39075
O         -2.75391        0.17645        0.59288
N          1.74450        1.67880        0.40550
C          0.72720        0.63750        0.54990
C         -0.59570        1.11590       -0.06130
C          1.27480       -0.59800       -0.14700
C         -1.68196        0.06742        0.01707
H          0.60510        0.41580        1.61660
H         -0.43644        1.36411       -1.11896
H         -0.96119        2.01367        0.45016
H          2.59320        1.39920        0.89650
H          1.42470        2.53410        0.85860
H          1.83534       -1.18655       -1.92033
H         -1.98296       -1.75042       -0.61925
