#p m062X def2TZVP opt freq
 
5960 aspartic
 
0 1
O          0.45775       -1.02637       -1.14665
O         -1.85378        3.09417       -0.25048
O          2.31344       -1.17384        0.14954
O         -0.98680        2.64382        1.80442
N          1.74450        1.67880        0.40550
C          0.72720        0.63750        0.54990
C         -0.59570        1.11590       -0.06130
C          1.27480       -0.59800       -0.14700
C         -1.14187        2.34428        0.63022
H          0.60510        0.41580        1.61660
H         -1.34309        0.31596        0.02301
H         -0.47141        1.35832       -1.12288
H          2.59320        1.39920        0.89650
H          1.42470        2.53410        0.85860
H          0.80963       -1.82937       -1.58666
H         -2.22372        3.89933        0.17035
