#p m062X def2TZVP opt freq
 
5960 aspartic
 
0 1
O          2.46062       -1.00166        0.38333
O          0.51154        0.72383       -2.09904
O          0.74470       -1.16955       -1.09074
O         -1.11504        2.31462       -2.12570
N          1.74450        1.67880        0.40550
C          0.72720        0.63750        0.54990
C         -0.59570        1.11590       -0.06130
C          1.27480       -0.59800       -0.14700
C         -0.46054        1.47745       -1.52295
H          0.60510        0.41580        1.61660
H         -0.94302        2.00592        0.47985
H         -1.36737        0.34199        0.02086
H          2.59320        1.39920        0.89650
H          1.42470        2.53410        0.85860
H          2.81525       -1.79267       -0.07579
H          0.62173        0.93459       -3.05071
