#p m062X def2TZVP opt freq
 
5960 aspartic
 
0 1
O          2.07511       -0.27953       -1.19982
O         -0.25075        3.36486        0.53477
O          1.02420       -1.75453        0.16597
O         -2.22069        2.43781        1.19583
N          1.74450        1.67880        0.40550
C          0.72720        0.63750        0.54990
C         -0.59570        1.11590       -0.06130
C          1.27480       -0.59800       -0.14700
C         -1.14187        2.34428        0.63022
H          0.60510        0.41580        1.61660
H         -1.34309        0.31596        0.02301
H         -0.47141        1.35832       -1.12288
H          2.59320        1.39920        0.89650
H          1.42470        2.53410        0.85860
H          2.41785       -1.07934       -1.65266
H         -0.57859        4.17865        0.97352
