#p m062X def2TZVP opt freq
 
5960 aspartic
 
0 1
O          1.49188       -0.38411       -1.47270
O         -2.49838        2.35003        0.56226
O          1.48402       -1.67751        0.39075
O         -0.48758        3.21720        1.18018
N          1.74450        1.67880        0.40550
C          0.72720        0.63750        0.54990
C         -0.59570        1.11590       -0.06130
C          1.27480       -0.59800       -0.14700
C         -1.14187        2.34428        0.63022
H          0.60510        0.41580        1.61660
H         -1.34309        0.31596        0.02301
H         -0.47141        1.35832       -1.12288
H          2.59320        1.39920        0.89650
H          1.42470        2.53410        0.85860
H          1.83534       -1.18655       -1.92033
H         -2.88327        3.13604        1.00531
