#p m062X def2TZVP opt freq
 
5960 aspartic
 
0 1
O          2.49331       -0.37175       -0.70772
O         -2.82694        0.54370       -0.53697
O          0.69965       -1.67537       -0.22938
O         -1.57609       -1.05097        0.49720
N          1.74450        1.67880        0.40550
C          0.72720        0.63750        0.54990
C         -0.59570        1.11590       -0.06130
C          1.27480       -0.59800       -0.14700
C         -1.68196        0.06742        0.01707
H          0.60510        0.41580        1.61660
H         -0.43644        1.36411       -1.11896
H         -0.96119        2.01367        0.45016
H          2.59320        1.39920        0.89650
H          1.42470        2.53410        0.85860
H          2.83815       -1.16819       -1.16489
H         -3.55169       -0.11645       -0.50289
