#p m062X def2TZVP opt freq
 
5960 aspartic
 
0 1
O          0.84326       -1.74850        0.43650
O         -1.20332       -1.05201        0.61919
O          2.03395       -0.58886       -1.10717
O         -2.82897        0.18089       -0.38794
N          1.74450        1.67880        0.40550
C          0.72720        0.63750        0.54990
C         -0.59570        1.11590       -0.06130
C          1.27480       -0.59800       -0.14700
C         -1.68196        0.06742        0.01707
H          0.60510        0.41580        1.61660
H         -0.43644        1.36411       -1.11896
H         -0.96119        2.01367        0.45016
H          2.59320        1.39920        0.89650
H          1.42470        2.53410        0.85860
H          1.20702       -2.54270       -0.00978
H         -1.88746       -1.75174        0.68675
