#p m062X def2TZVP opt freq
 
5951 serine
 
0 1
O          1.89167        1.04143       -0.24042
O         -0.40962        1.46830       -0.52827
O         -2.08203        0.04229        0.04817
N         -0.17830       -1.96140        0.31450
C          0.24990       -0.57190        0.46740
C          1.50430       -0.32290       -0.36530
C         -0.89000        0.30870       -0.00750
H          0.43510       -0.37070        1.52850
H          2.33889       -0.95034       -0.03423
H          1.32858       -0.51731       -1.42900
H         -0.38310       -2.16140       -0.66380
H         -1.04210       -2.11820        0.83210
H          2.06978        1.20970        0.70065
H         -1.13076        2.05268       -0.84578
