#p m062X def2TZVP opt freq
 
5951 serine
 
0 1
O          1.23130       -0.61738       -1.73124
O         -1.30794        1.12646        0.99411
O         -1.38288        0.31385       -1.12645
N         -0.17830       -1.96140        0.31450
C          0.24990       -0.57190        0.46740
C          1.50430       -0.32290       -0.36530
C         -0.89000        0.30870       -0.00750
H          0.43510       -0.37070        1.52850
H          1.83359        0.71950       -0.29609
H          2.33275       -0.96700       -0.05075
H         -0.38310       -2.16140       -0.66380
H         -1.04210       -2.11820        0.83210
H          0.51100       -0.03058       -2.01841
H         -2.04363        1.70870        0.70754
