#p m062X def2TZVP opt freq
 
6306 isoleucine
 
0 1
O          0.16687       -2.60767       -1.81781
O          2.01606       -1.34467       -2.17396
N          1.57749        0.23443       -0.09209
C         -0.84990       -0.19660       -0.51130
C          0.55990       -0.80120       -0.29320
C         -1.32840        0.71620        0.64250
C         -1.89090       -1.29490       -0.77940
C         -1.55686        0.01202        1.97335
C          1.00610       -1.58101       -1.52243
H         -0.80620        0.42400       -1.41710
H          0.56827       -1.47795        0.56824
H         -2.27084        1.19655        0.35411
H         -0.60666        1.52278        0.81517
H         -1.52420       -1.99570       -1.53740
H         -2.11860       -1.86500        0.12730
H         -2.82570       -0.87380       -1.16250
H         -2.22569       -0.84601        1.85311
H         -2.01704        0.70234        2.68797
H         -0.61742       -0.33492        2.41305
H          1.67629        0.80754       -0.92850
H          2.48566       -0.20106        0.06563
H          0.46755       -3.11065       -2.60442
