#p m062X def2TZVP opt freq
 
6306 isoleucine
 
0 1
O          1.70080        0.58584        1.29322
O          2.21628        0.88642       -0.89434
N          0.60769       -1.67542        0.88235
C         -0.84990       -0.19660       -0.51130
C          0.55990       -0.80120       -0.29320
C         -1.32840        0.71620        0.64250
C         -1.89090       -1.29490       -0.77940
C         -2.64952        1.43263        0.39633
C          1.58054        0.29726       -0.02884
H         -0.80620        0.42400       -1.41710
H          0.88343       -1.37063       -1.17139
H         -0.56651        1.48043        0.83634
H         -1.43351        0.13809        1.56772
H         -1.52420       -1.99570       -1.53740
H         -2.11860       -1.86500        0.12730
H         -2.82570       -0.87380       -1.16250
H         -2.62735        1.98150       -0.55038
H         -2.84098        2.15140        1.19988
H         -3.49036        0.73346        0.37637
H          0.42785       -1.14365        1.73245
H          1.54347       -2.06739        0.98228
H          2.35237        1.30137        1.45324
