#p m062X def2TZVP opt freq
 
6306 isoleucine
 
0 1
O          0.07563       -1.56534       -2.51217
O          2.06802       -2.18312       -1.62319
N          1.57749        0.23443       -0.09209
C         -0.84990       -0.19660       -0.51130
C          0.55990       -0.80120       -0.29320
C         -1.32840        0.71620        0.64250
C         -1.89090       -1.29490       -0.77940
C         -2.64952        1.43263        0.39633
C          1.00610       -1.58101       -1.52243
H         -0.80620        0.42400       -1.41710
H          0.56827       -1.47795        0.56824
H         -0.56651        1.48043        0.83634
H         -1.43351        0.13809        1.56772
H         -1.52420       -1.99570       -1.53740
H         -2.11860       -1.86500        0.12730
H         -2.82570       -0.87380       -1.16250
H         -2.62735        1.98150       -0.55038
H         -2.84098        2.15140        1.19988
H         -3.49036        0.73346        0.37637
H          1.67629        0.80754       -0.92850
H          2.48566       -0.20106        0.06563
H          0.36692       -2.07858       -3.29568
