#p m062X def2TZVP opt freq
 
6306 isoleucine
 
0 1
O          1.25900        1.46334       -0.64728
O          2.59683        0.16317        0.64163
N          0.60769       -1.67542        0.88235
C         -0.84990       -0.19660       -0.51130
C          0.55990       -0.80120       -0.29320
C         -1.32840        0.71620        0.64250
C         -1.89090       -1.29490       -0.77940
C         -1.55686        0.01202        1.97335
C          1.58054        0.29726       -0.02884
H         -0.80620        0.42400       -1.41710
H          0.88343       -1.37063       -1.17139
H         -2.27084        1.19655        0.35411
H         -0.60666        1.52278        0.81517
H         -1.52420       -1.99570       -1.53740
H         -2.11860       -1.86500        0.12730
H         -2.82570       -0.87380       -1.16250
H         -2.22569       -0.84601        1.85311
H         -2.01704        0.70234        2.68797
H         -0.61742       -0.33492        2.41305
H          0.42785       -1.14365        1.73245
H          1.54347       -2.06739        0.98228
H          1.92702        2.16188       -0.48014
