#p m062X def2TZVP opt freq
 
6267 aspargine
 
0 1
O          0.28779       -1.60643        0.27581
O          2.35344       -0.90009       -0.33476
O         -1.49764       -1.13243       -0.44504
N          1.78050        1.68340        0.08540
N         -2.80591        0.64873        0.19282
C          0.69900        0.74360        0.39060
C         -0.51740        1.06660       -0.47970
C          1.22750       -0.64570        0.07400
C         -1.63547        0.07168       -0.24260
H          0.48220        0.81270        1.46110
H         -0.89917        2.07094       -0.25914
H         -0.26072        1.03480       -1.54619
H          2.03560        1.61930       -0.89940
H          2.61350        1.44030        0.62000
H         -2.91161        1.65053        0.31461
H         -3.62519        0.08133        0.38347
H          0.62775       -2.50106        0.06039
