#p m062X def2TZVP opt freq
 
6267 aspargine
 
0 1
O          2.52152       -0.61635       -0.34006
O          0.59484       -1.68803        0.18726
O         -2.02925        2.92056       -0.75344
N          1.78050        1.68340        0.08540
N         -0.33437        3.12134        0.78865
C          0.69900        0.74360        0.39060
C         -0.51740        1.06660       -0.47970
C          1.22750       -0.64570        0.07400
C         -1.05369        2.45025       -0.17297
H          0.48220        0.81270        1.46110
H         -0.25659        1.02782       -1.54439
H         -1.32836        0.34718       -0.30918
H          2.03560        1.61930       -0.89940
H          2.61350        1.44030        0.62000
H          0.49335        2.73094        1.22691
H         -0.59871        4.05793        1.07579
H          2.86379       -1.51515       -0.53333
