#p m062X def2TZVP opt freq
 
6267 aspargine
 
0 1
O          1.62999       -0.75512       -1.21938
O          1.31220       -1.57107        0.87152
O         -1.61710        3.13941       -1.02002
N          1.78050        1.68340        0.08540
N         -0.82807        2.85609        1.12197
C          0.69900        0.74360        0.39060
C         -0.51740        1.06660       -0.47970
C          1.22750       -0.64570        0.07400
C         -1.05369        2.45025       -0.17297
H          0.48220        0.81270        1.46110
H         -0.25659        1.02782       -1.54439
H         -1.32836        0.34718       -0.30918
H          2.03560        1.61930       -0.89940
H          2.61350        1.44030        0.62000
H         -0.32426        2.28808        1.79513
H         -1.14103        3.76632        1.44300
H          1.98083       -1.64932       -1.41847
