#p m062X def2TZVP opt freq
 
6267 aspargine
 
0 1
O          2.17957       -0.61989       -0.89537
O          0.87299       -1.68145        0.62270
O         -0.25193       -0.00496       -2.61958
N          1.78050        1.68340        0.08540
N          0.29058        2.22372       -2.44754
C          0.69900        0.74360        0.39060
C         -0.51740        1.06660       -0.47970
C          1.22750       -0.64570        0.07400
C         -0.16025        1.02233       -1.95166
H          0.48220        0.81270        1.46110
H         -1.32664        0.34804       -0.30110
H         -0.90710        2.06848       -0.25912
H          2.03560        1.61930       -0.89940
H          2.61350        1.44030        0.62000
H          0.39786        3.05050       -1.86915
H          0.56137        2.31499       -3.42112
H          2.52697       -1.51635       -1.09029
