#p m062X def2TZVP opt freq
 
6267 aspargine
 
0 1
O          2.29618       -0.97263        0.84719
O          0.75678       -1.41101       -0.75801
O         -2.24233        2.73649       -0.29568
N          1.78050        1.68340        0.08540
N         -0.08585        3.34203        0.22764
C          0.69900        0.74360        0.39060
C         -0.51740        1.06660       -0.47970
C          1.22750       -0.64570        0.07400
C         -1.05369        2.45025       -0.17297
H          0.48220        0.81270        1.46110
H         -0.25659        1.02782       -1.54439
H         -1.32836        0.34718       -0.30918
H          2.03560        1.61930       -0.89940
H          2.61350        1.44030        0.62000
H          0.89717        3.09667        0.28317
H         -0.32621        4.30038        0.45857
H          2.62873       -1.87393        0.64867
