#p m062X def2TZVP opt freq
 
6267 aspargine
 
0 1
O          0.62973       -1.60290        0.83112
O          2.07530       -0.90666       -0.77020
O         -0.95548        2.96131        0.94015
N          1.78050        1.68340        0.08540
N         -1.67064        3.05403       -1.24409
C          0.69900        0.74360        0.39060
C         -0.51740        1.06660       -0.47970
C          1.22750       -0.64570        0.07400
C         -1.05369        2.45025       -0.17297
H          0.48220        0.81270        1.46110
H         -0.25659        1.02782       -1.54439
H         -1.32836        0.34718       -0.30918
H          2.03560        1.61930       -0.89940
H          2.61350        1.44030        0.62000
H         -1.77757        2.59808       -2.14425
H         -2.07038        3.98260       -1.15749
H          0.96457       -2.49985        0.61735
