#p m062X def2TZVP opt freq
 
6267 aspargine
 
0 1
O          1.02003       -0.98581       -1.22526
O          1.79481       -1.38647        0.86706
O         -0.33025        3.36422        0.21581
N          1.78050        1.68340        0.08540
N         -2.41286        2.56810       -0.34976
C          0.69900        0.74360        0.39060
C         -0.51740        1.06660       -0.47970
C          1.22750       -0.64570        0.07400
C         -1.05369        2.45025       -0.17297
H          0.48220        0.81270        1.46110
H         -0.25659        1.02782       -1.54439
H         -1.32836        0.34718       -0.30918
H          2.03560        1.61930       -0.89940
H          2.61350        1.44030        0.62000
H         -2.99899        1.78949       -0.63229
H         -2.88520        3.44855       -0.17306
H          1.37170       -1.87843       -1.42994
