#p m062X def2TZVP opt freq
 
6267 aspargine
 
0 1
O          0.62973       -1.60290        0.83112
O          2.07530       -0.90666       -0.77020
O         -0.66105        3.45327       -0.76428
N          1.78050        1.68340        0.08540
N         -1.99157        2.46913        0.83327
C          0.69900        0.74360        0.39060
C         -0.51740        1.06660       -0.47970
C          1.22750       -0.64570        0.07400
C         -1.05369        2.45025       -0.17297
H          0.48220        0.81270        1.46110
H         -0.25659        1.02782       -1.54439
H         -1.32836        0.34718       -0.30918
H          2.03560        1.61930       -0.89940
H          2.61350        1.44030        0.62000
H         -2.27234        1.63449        1.33740
H         -2.42053        3.34041        1.12719
H          0.96457       -2.49985        0.61735
