#p m062X def2TZVP opt freq
 
6267 aspargine
 
0 1
O          1.78928       -1.23697        1.16101
O          1.15347       -1.20165       -1.01456
O         -2.74316        0.41277        0.16552
N          1.78050        1.68340        0.08540
N         -1.28089       -1.23136       -0.50500
C          0.69900        0.74360        0.39060
C         -0.51740        1.06660       -0.47970
C          1.22750       -0.64570        0.07400
C         -1.63547        0.07168       -0.24260
H          0.48220        0.81270        1.46110
H         -0.89917        2.07094       -0.25914
H         -0.26072        1.03480       -1.54619
H          2.03560        1.61930       -0.89940
H          2.61350        1.44030        0.62000
H         -0.34775       -1.49686       -0.80226
H         -1.94746       -1.98615       -0.38056
H          2.11984       -2.13778        0.95700
