#p m062X def2TZVP opt freq
 
6267 aspargine
 
0 1
O          2.29618       -0.97263        0.84719
O          0.75678       -1.41101       -0.75801
O         -0.37334        3.46418       -0.31048
N          1.78050        1.68340        0.08540
N         -2.34962        2.45110        0.28860
C          0.69900        0.74360        0.39060
C         -0.51740        1.06660       -0.47970
C          1.22750       -0.64570        0.07400
C         -1.05369        2.45025       -0.17297
H          0.48220        0.81270        1.46110
H         -0.25659        1.02782       -1.54439
H         -1.32836        0.34718       -0.30918
H          2.03560        1.61930       -0.89940
H          2.61350        1.44030        0.62000
H         -2.88083        1.59889        0.43410
H         -2.81486        3.32023        0.52878
H          2.62873       -1.87393        0.64867
