#p m062X def2TZVP opt freq
 
6274 histidine
 
0 1
O         -3.63191        1.26680       -1.35745
O         -3.12245        2.03511        0.71510
N          1.35921       -0.39901        0.92714
N         -1.21002        0.66083       -1.88735
N          2.96459       -0.09303       -0.57660
C         -0.35790        1.30040        0.32170
C         -1.50620        0.63970       -0.45670
C          0.96710        0.60200        0.11950
C         -2.82026        1.37964       -0.27408
C          1.93877        0.79199       -0.79505
C          2.58449       -0.79522        0.46770
H         -0.59420        1.31960        1.39460
H         -0.24330        2.34500        0.00390
H         -1.64734       -0.40417       -0.15375
H          0.86017       -0.78935        1.71610
H          1.97906        1.50662       -1.60395
H         -0.34487        0.15063       -2.06285
H         -1.03312        1.61795       -2.19153
H          3.14172       -1.59488        0.93453
H         -4.47250        1.75786       -1.23726
