#p m062X def2TZVP opt freq
 
6274 histidine
 
0 1
O         -0.89741       -1.17822        0.97432
O         -2.58262       -1.54480       -0.49911
N          1.64226        0.07212        1.15461
N         -2.75043        1.36616       -0.21362
N          2.83698       -0.30549       -0.67901
C         -0.35790        1.30040        0.32170
C         -1.50620        0.63970       -0.45670
C          0.96710        0.60200        0.11950
C         -1.74625       -0.79346       -0.01395
C          1.68869        0.37577       -0.99619
C          2.77862       -0.47207        0.62366
H         -0.59420        1.31960        1.39460
H         -0.24330        2.34500        0.00390
H         -1.31421        0.64510       -1.53581
H          1.37587        0.06898        2.13077
H          1.46695        0.65434       -2.01594
H         -2.64534        2.33256       -0.52120
H         -2.93525        1.41339        0.78813
H          3.51599       -0.97195        1.23547
H         -1.04981       -2.10846        1.24559
