#p m062X def2TZVP opt freq
 
6274 histidine
 
0 1
O         -2.22366       -1.57204       -1.01949
O         -1.56658       -1.21420        1.12189
N          1.03006       -0.71845       -0.12647
N         -2.75043        1.36616       -0.21362
N          3.11310        0.05123       -0.10173
C         -0.35790        1.30040        0.32170
C         -1.50620        0.63970       -0.45670
C          0.96710        0.60200        0.11950
C         -1.74625       -0.79346       -0.01395
C          2.22948        1.07397        0.13602
C          2.35870       -1.01439       -0.25487
H         -0.59420        1.31960        1.39460
H         -0.24330        2.34500        0.00390
H         -1.31421        0.64510       -1.53581
H          0.26060       -1.37100       -0.20379
H          2.57430        2.08389        0.30276
H         -2.64534        2.33256       -0.52120
H         -2.93525        1.41339        0.78813
H          2.70658       -2.01703       -0.45881
H         -2.38849       -2.49229       -0.72261
