#p m062X def2TZVP opt freq
 
6274 histidine
 
0 1
O         -0.89741       -1.17822        0.97432
O         -2.58262       -1.54480       -0.49911
N          2.12847        1.27712        0.17863
N         -2.75043        1.36616       -0.21362
N          2.61794       -0.84852       -0.23869
C         -0.35790        1.30040        0.32170
C         -1.50620        0.63970       -0.45670
C          0.96710        0.60200        0.11950
C         -1.74625       -0.79346       -0.01395
C          1.25891       -0.68917       -0.13420
C          3.11203        0.35430       -0.04582
H         -0.59420        1.31960        1.39460
H         -0.24330        2.34500        0.00390
H         -1.31421        0.64510       -1.53581
H          2.26201        2.26485        0.35300
H          0.58675       -1.52656       -0.25098
H         -2.64534        2.33256       -0.52120
H         -2.93525        1.41339        0.78813
H          4.15909        0.62168       -0.05475
H         -1.04981       -2.10846        1.24559
