#p m062X def2TZVP opt freq
 
6274 histidine
 
0 1
O         -1.43219       -0.99022        1.29291
O         -2.14702       -1.69279       -0.74196
N          1.79931        0.95768       -0.87497
N         -2.75043        1.36616       -0.21362
N          2.76645       -0.70426        0.23619
C         -0.35790        1.30040        0.32170
C         -1.50620        0.63970       -0.45670
C          0.96710        0.60200        0.11950
C         -1.74625       -0.79346       -0.01395
C          1.54962       -0.40719        0.79687
C          2.88624        0.13513       -0.76839
H         -0.59420        1.31960        1.39460
H         -0.24330        2.34500        0.00390
H         -1.31421        0.64510       -1.53581
H          1.66244        1.68320       -1.56689
H          1.18200       -0.94929        1.65573
H         -2.64534        2.33256       -0.52120
H         -2.93525        1.41339        0.78813
H          3.72394        0.19953       -1.44809
H         -1.57733       -1.92058        1.56775
