#p m062X def2TZVP opt freq
 
6274 histidine
 
0 1
O         -3.00352       -0.98308        0.46409
O         -0.90784       -1.68535       -0.04603
N          1.13513       -0.68838        0.45823
N         -2.75043        1.36616       -0.21362
N          3.06566        0.03753       -0.36530
C         -0.35790        1.30040        0.32170
C         -1.50620        0.63970       -0.45670
C          0.96710        0.60200        0.11950
C         -1.74625       -0.79346       -0.01395
C          2.13671        1.04754       -0.38063
C          2.43079       -0.99372        0.14613
H         -0.59420        1.31960        1.39460
H         -0.24330        2.34500        0.00390
H         -1.31421        0.64510       -1.53581
H          0.45196       -1.31642        0.86159
H          2.38438        2.02988       -0.75525
H         -2.64534        2.33256       -0.52120
H         -2.93525        1.41339        0.78813
H          2.84545       -1.97741        0.31438
H         -3.14663       -1.90726        0.76004
