#p m062X def2TZVP opt freq
 
6274 histidine
 
0 1
O         -3.63191        1.26680       -1.35745
O         -3.12245        2.03511        0.71510
N          1.51627        0.48655       -1.10244
N         -1.21002        0.66083       -1.88735
N          2.89406       -0.49180        0.33859
C         -0.35790        1.30040        0.32170
C         -1.50620        0.63970       -0.45670
C          0.96710        0.60200        0.11950
C         -2.82026        1.37964       -0.27408
C          1.79970        0.00903        0.99802
C          2.69211       -0.18801       -0.92435
H         -0.59420        1.31960        1.39460
H         -0.24330        2.34500        0.00390
H         -1.64734       -0.40417       -0.15375
H          1.14674        0.82487       -1.98156
H          1.69410       -0.09701        2.06772
H         -0.34487        0.15063       -2.06285
H         -1.03312        1.61795       -2.19153
H          3.34968       -0.42340       -1.74903
H         -4.47250        1.75786       -1.23726
