#p m062X def2TZVP opt freq
 
6274 histidine
 
0 1
O         -1.69065        1.70220       -2.59219
O         -0.69158       -0.33347       -2.53561
N          1.25010       -0.04011       -1.02752
N         -1.66640       -0.74554       -0.02038
N          3.01403       -0.25439        0.30467
C         -0.35790        1.30040        0.32170
C         -1.50620        0.63970       -0.45670
C          0.96710        0.60200        0.11950
C         -1.23301        0.59592       -1.95037
C          2.03491        0.47438        0.93198
C          2.50958       -0.54921       -0.87292
H         -0.59420        1.31960        1.39460
H         -0.24330        2.34500        0.00390
H         -2.45576        1.16108       -0.28974
H          0.66174       -0.13473       -1.84528
H          2.17577        0.85593        1.93260
H         -1.87828       -0.76541        0.97676
H         -0.78488       -1.24725       -0.12577
H          2.99769       -1.11982       -1.65012
H         -1.52237        1.66062       -3.55766
