#p m062X def2TZVP opt freq
 
5961 glutamine
 
0 1
O         -1.58274        0.41481       -1.48441
O         -3.02278        1.08260        0.13282
O          3.37988       -0.51689       -0.40911
N         -1.48140       -1.94169        0.07309
N          2.59985        1.44352        0.50586
C          0.13380       -0.23550        0.87580
C         -1.34240       -0.60860        0.65900
C          1.00320       -0.14580       -0.38390
C         -2.08694        0.37769       -0.22256
C          2.44577        0.22436       -0.11276
H          0.19040        0.72360        1.40710
H          0.57830       -0.97640        1.55450
H         -1.85227       -0.62009        1.62966
H          1.01661       -1.10879       -0.90683
H          0.58496        0.59919       -1.07098
H         -1.11875       -1.94883       -0.87912
H         -2.46879       -2.18546        0.00318
H          1.80890        2.03312        0.74471
H          3.52088        1.79647        0.74361
H         -2.06116        1.05782       -2.05010
