#p m062X def2TZVP opt freq
 
5961 glutamine
 
0 1
O         -1.39404       -0.31923        3.02817
O         -3.30882       -1.02681        2.04428
O          2.96841        1.22499       -0.59794
N         -2.00986        0.33173       -0.24101
N          3.10502       -0.66802        0.70077
C          0.13380       -0.23550        0.87580
C         -1.34240       -0.60860        0.65900
C          1.00320       -0.14580       -0.38390
C         -2.13907       -0.67805        1.94925
C          2.44577        0.22436       -0.11276
H          0.19040        0.72360        1.40710
H          0.57830       -0.97640        1.55450
H         -1.39375       -1.60126        0.19610
H          1.01661       -1.10879       -0.90683
H          0.58496        0.59919       -1.07098
H         -2.08496        1.24827        0.19782
H         -2.96492        0.02121       -0.41624
H          2.64944       -1.49053        1.08315
H          4.07897       -0.52864        0.94857
H         -1.90914       -0.37151        3.86140
