#p m062X def2TZVP opt freq
 
5961 glutamine
 
0 1
O         -1.05668       -2.97620        0.76934
O         -2.02345       -2.15105       -1.10671
O          0.42685        2.07472       -1.10783
N         -2.08916       -0.60840        1.91681
N          0.21255        0.35378       -2.61822
C          0.13380       -0.23550        0.87580
C         -1.34240       -0.60860        0.65900
C          1.00320       -0.14580       -0.38390
C         -1.52784       -1.96184       -0.00328
C          0.52950        0.88284       -1.38841
H          0.19040        0.72360        1.40710
H          0.57830       -0.97640        1.55450
H         -1.80441        0.13693        0.00096
H          2.03217        0.12186       -0.11829
H          1.03255       -1.12074       -0.88454
H         -1.76590       -1.36343        2.51990
H         -3.07436       -0.79406        1.73198
H          0.30149       -0.63690       -2.82050
H         -0.12223        0.94547       -3.37137
H         -1.17149       -3.84888        0.33621
