#p m062X def2TZVP opt freq
 
5961 glutamine
 
0 1
O         -2.08294       -0.00166       -1.52791
O         -2.62396        1.40892        0.16107
O         -0.25533        0.60429       -2.29188
N         -1.48140       -1.94169        0.07309
N          1.07286        2.13296       -1.20199
C          0.13380       -0.23550        0.87580
C         -1.34240       -0.60860        0.65900
C          1.00320       -0.14580       -0.38390
C         -2.08694        0.37769       -0.22256
C          0.52950        0.88284       -1.38841
H          0.19040        0.72360        1.40710
H          0.57830       -0.97640        1.55450
H         -1.85227       -0.62009        1.62966
H          2.03217        0.12186       -0.11829
H          1.03255       -1.12074       -0.88454
H         -1.11875       -1.94883       -0.87912
H         -2.46879       -2.18546        0.00318
H          1.72422        2.33339       -0.44976
H          0.83459        2.90367       -1.81733
H         -2.55880        0.64078       -2.09640
