#p m062X def2TZVP opt freq
 
5961 glutamine
 
0 1
O         -2.59087        1.41931        0.49087
O         -2.24703        0.26993       -1.43158
O          2.83319        1.39040       -0.10432
N         -1.48140       -1.94169        0.07309
N          3.26704       -0.85885        0.09931
C          0.13380       -0.23550        0.87580
C         -1.34240       -0.60860        0.65900
C          1.00320       -0.14580       -0.38390
C         -2.08694        0.37769       -0.22256
C          2.44577        0.22436       -0.11276
H          0.19040        0.72360        1.40710
H          0.57830       -0.97640        1.55450
H         -1.85227       -0.62009        1.62966
H          1.01661       -1.10879       -0.90683
H          0.58496        0.59919       -1.07098
H         -1.11875       -1.94883       -0.87912
H         -2.46879       -2.18546        0.00318
H          2.92053       -1.81272        0.08066
H          4.25683       -0.73602        0.28541
H         -3.07731        2.05162       -0.08002
