#p m062X def2TZVP opt freq
 
5961 glutamine
 
0 1
O         -2.12353       -1.85612       -1.22060
O         -1.20586       -3.03966        0.48006
O          3.37988       -0.51689       -0.40911
N         -2.08916       -0.60840        1.91681
N          2.59985        1.44352        0.50586
C          0.13380       -0.23550        0.87580
C         -1.34240       -0.60860        0.65900
C          1.00320       -0.14580       -0.38390
C         -1.52784       -1.96184       -0.00328
C          2.44577        0.22436       -0.11276
H          0.19040        0.72360        1.40710
H          0.57830       -0.97640        1.55450
H         -1.80441        0.13693        0.00096
H          1.01661       -1.10879       -0.90683
H          0.58496        0.59919       -1.07098
H         -1.76590       -1.36343        2.51990
H         -3.07436       -0.79406        1.73198
H          1.80890        2.03312        0.74471
H          3.52088        1.79647        0.74361
H         -2.24839       -2.73246       -1.64344
