#p m062X def2TZVP opt freq
 
5961 glutamine
 
0 1
O         -1.70687        0.22932        2.86454
O         -3.05603       -1.45664        2.17723
O          0.69498       -1.52078       -2.33361
N         -2.00986        0.33173       -0.24101
N          1.60819       -2.49001       -0.45865
C          0.13380       -0.23550        0.87580
C         -1.34240       -0.60860        0.65900
C          1.00320       -0.14580       -0.38390
C         -2.13907       -0.67805        1.94925
C          1.08373       -1.43633       -1.17104
H          0.19040        0.72360        1.40710
H          0.57830       -0.97640        1.55450
H         -1.39375       -1.60126        0.19610
H          0.60879        0.61638       -1.06545
H          2.02310        0.14925       -0.11047
H         -2.08496        1.24827        0.19782
H         -2.96492        0.02121       -0.41624
H          1.91622       -2.39287        0.50362
H          1.70649       -3.40808       -0.87922
H         -2.21878        0.17777        3.69979
