#p m062X def2TZVP opt freq
 
5961 glutamine
 
0 1
O         -3.46056       -0.43257        1.74609
O         -1.67593       -0.90889        3.05885
O          3.37988       -0.51689       -0.40911
N         -2.00986        0.33173       -0.24101
N          2.59985        1.44352        0.50586
C          0.13380       -0.23550        0.87580
C         -1.34240       -0.60860        0.65900
C          1.00320       -0.14580       -0.38390
C         -2.13907       -0.67805        1.94925
C          2.44577        0.22436       -0.11276
H          0.19040        0.72360        1.40710
H          0.57830       -0.97640        1.55450
H         -1.39375       -1.60126        0.19610
H          1.01661       -1.10879       -0.90683
H          0.58496        0.59919       -1.07098
H         -2.08496        1.24827        0.19782
H         -2.96492        0.02121       -0.41624
H          1.80890        2.03312        0.74471
H          3.52088        1.79647        0.74361
H         -3.97200       -0.47132        2.58232
