#p m062X def2TZVP opt freq
 
5961 glutamine
 
0 1
O         -3.38920        0.50758        0.14506
O         -1.60675        0.98772       -1.16927
O          3.36861       -0.17124       -0.82106
N         -1.48140       -1.94169        0.07309
N          2.61661        1.01743        0.99838
C          0.13380       -0.23550        0.87580
C         -1.34240       -0.60860        0.65900
C          1.00320       -0.14580       -0.38390
C         -2.08694        0.37769       -0.22256
C          2.44577        0.22436       -0.11276
H          0.19040        0.72360        1.40710
H          0.57830       -0.97640        1.55450
H         -1.85227       -0.62009        1.62966
H          1.01661       -1.10879       -0.90683
H          0.58496        0.59919       -1.07098
H         -1.11875       -1.94883       -0.87912
H         -2.46879       -2.18546        0.00318
H          1.83566        1.32483        1.56927
H          3.54022        1.32527        1.28400
H         -3.86976        1.14027       -0.43036
