#p m062X def2TZVP opt freq
 
5961 glutamine
 
0 1
O         -1.59340       -1.54910        2.83887
O         -3.16338       -0.05082        2.18662
O          0.51015       -2.46139       -0.81039
N         -2.00986        0.33173       -0.24101
N          1.86631       -1.35117       -2.29937
C          0.13380       -0.23550        0.87580
C         -1.34240       -0.60860        0.65900
C          1.00320       -0.14580       -0.38390
C         -2.13907       -0.67805        1.94925
C          1.08373       -1.43633       -1.17104
H          0.19040        0.72360        1.40710
H          0.57830       -0.97640        1.55450
H         -1.39375       -1.60126        0.19610
H          0.60879        0.61638       -1.06545
H          2.02310        0.14925       -0.11047
H         -2.08496        1.24827        0.19782
H         -2.96492        0.02121       -0.41624
H          2.33376       -0.49189       -2.57032
H          2.00041       -2.15445       -2.90448
H         -2.11383       -1.59722        3.66904
