#p m062X def2TZVP opt freq
 
5961 glutamine
 
0 1
O         -3.40536        0.06625       -0.33505
O         -1.58736        1.33946       -0.79213
O          1.01192       -2.53850       -0.63263
N         -1.48140       -1.94169        0.07309
N          1.26233       -1.25260       -2.52276
C          0.13380       -0.23550        0.87580
C         -1.34240       -0.60860        0.65900
C          1.00320       -0.14580       -0.38390
C         -2.08694        0.37769       -0.22256
C          1.08373       -1.43633       -1.17104
H          0.19040        0.72360        1.40710
H          0.57830       -0.97640        1.55450
H         -1.85227       -0.62009        1.62966
H          0.60879        0.61638       -1.06545
H          2.02310        0.14925       -0.11047
H         -1.11875       -1.94883       -0.87912
H         -2.46879       -2.18546        0.00318
H          1.32422       -0.32938       -2.94004
H          1.33655       -2.04447       -3.15272
H         -3.88278        0.70114       -0.91067
