#p m062X def2TZVP opt freq
 
5961 glutamine
 
0 1
O         -2.02262        1.64541        0.26390
O         -2.69635        0.09621       -1.24646
O          1.95911       -2.27450       -0.96855
N         -1.48140       -1.94169        0.07309
N          0.10710       -1.56321       -2.13172
C          0.13380       -0.23550        0.87580
C         -1.34240       -0.60860        0.65900
C          1.00320       -0.14580       -0.38390
C         -2.08694        0.37769       -0.22256
C          1.08373       -1.43633       -1.17104
H          0.19040        0.72360        1.40710
H          0.57830       -0.97640        1.55450
H         -1.85227       -0.62009        1.62966
H          0.60879        0.61638       -1.06545
H          2.02310        0.14925       -0.11047
H         -1.11875       -1.94883       -0.87912
H         -2.46879       -2.18546        0.00318
H         -0.60085       -0.85136       -2.28122
H          0.06249       -2.38381       -2.72672
H         -2.51021        2.27964       -0.30387
