#p m062X def2TZVP opt freq
 
5961 glutamine
 
0 1
O         -0.56248       -2.84558        0.36407
O         -2.41925       -2.25129       -0.79106
O         -0.25533        0.60429       -2.29188
N         -2.08916       -0.60840        1.91681
N          1.07286        2.13296       -1.20199
C          0.13380       -0.23550        0.87580
C         -1.34240       -0.60860        0.65900
C          1.00320       -0.14580       -0.38390
C         -1.52784       -1.96184       -0.00328
C          0.52950        0.88284       -1.38841
H          0.19040        0.72360        1.40710
H          0.57830       -0.97640        1.55450
H         -1.80441        0.13693        0.00096
H          2.03217        0.12186       -0.11829
H          1.03255       -1.12074       -0.88454
H         -1.76590       -1.36343        2.51990
H         -3.07436       -0.79406        1.73198
H          1.72422        2.33339       -0.44976
H          0.83459        2.90367       -1.81733
H         -0.68066       -3.71709       -0.07050
