#p m062X def2TZVP opt freq
 
5961 glutamine
 
0 1
O         -2.20717        0.52850        2.57173
O         -2.65747       -1.68657        2.41094
O         -0.47449        1.56658       -1.20313
N         -2.00986        0.33173       -0.24101
N          1.31183        0.95826       -2.51761
C          0.13380       -0.23550        0.87580
C         -1.34240       -0.60860        0.65900
C          1.00320       -0.14580       -0.38390
C         -2.13907       -0.67805        1.94925
C          0.52950        0.88284       -1.38841
H          0.19040        0.72360        1.40710
H          0.57830       -0.97640        1.55450
H         -1.39375       -1.60126        0.19610
H          2.03217        0.12186       -0.11829
H          1.03255       -1.12074       -0.88454
H         -2.08496        1.24827        0.19782
H         -2.96492        0.02121       -0.41624
H          2.13334        0.37628       -2.64682
H          1.09013        1.60782       -3.26482
H         -2.71667        0.47946        3.40860
