#p m062X def2TZVP opt freq
 
5961 glutamine
 
0 1
O         -1.26845        1.35140       -0.70199
O         -3.28363        0.33939       -0.47838
O          1.54227       -2.47009       -0.69052
N         -1.48140       -1.94169        0.07309
N          0.61842       -1.33021       -2.46140
C          0.13380       -0.23550        0.87580
C         -1.34240       -0.60860        0.65900
C          1.00320       -0.14580       -0.38390
C         -2.08694        0.37769       -0.22256
C          1.08373       -1.43633       -1.17104
H          0.19040        0.72360        1.40710
H          0.57830       -0.97640        1.55450
H         -1.85227       -0.62009        1.62966
H          0.60879        0.61638       -1.06545
H          2.02310        0.14925       -0.11047
H         -1.11875       -1.94883       -0.87912
H         -2.46879       -2.18546        0.00318
H          0.25007       -0.46096       -2.83422
H          0.62722       -2.12842       -3.08766
H         -1.75332        1.99126       -1.26576
