#p m062X def2TZVP opt freq
 
5961 glutamine
 
0 1
O         -3.38920        0.50758        0.14506
O         -1.60675        0.98772       -1.16927
O          0.17143       -2.25943       -1.17616
N         -1.48140       -1.94169        0.07309
N          2.26853       -1.59950       -1.85107
C          0.13380       -0.23550        0.87580
C         -1.34240       -0.60860        0.65900
C          1.00320       -0.14580       -0.38390
C         -2.08694        0.37769       -0.22256
C          1.08373       -1.43633       -1.17104
H          0.19040        0.72360        1.40710
H          0.57830       -0.97640        1.55450
H         -1.85227       -0.62009        1.62966
H          0.60879        0.61638       -1.06545
H          2.02310        0.14925       -0.11047
H         -1.11875       -1.94883       -0.87912
H         -2.46879       -2.18546        0.00318
H          3.00821       -0.90494       -1.82412
H          2.44092       -2.42890       -2.40944
H         -3.86976        1.14027       -0.43036
