#p m062X def2TZVP opt freq
 
5961 glutamine
 
0 1
O         -0.87705       -2.03986       -1.19419
O         -2.19066       -2.88803        0.44598
O          1.01192       -2.53850       -0.63263
N         -2.08916       -0.60840        1.91681
N          1.26233       -1.25260       -2.52276
C          0.13380       -0.23550        0.87580
C         -1.34240       -0.60860        0.65900
C          1.00320       -0.14580       -0.38390
C         -1.52784       -1.96184       -0.00328
C          1.08373       -1.43633       -1.17104
H          0.19040        0.72360        1.40710
H          0.57830       -0.97640        1.55450
H         -1.80441        0.13693        0.00096
H          0.60879        0.61638       -1.06545
H          2.02310        0.14925       -0.11047
H         -1.76590       -1.36343        2.51990
H         -3.07436       -0.79406        1.73198
H          1.32422       -0.32938       -2.94004
H          1.33655       -2.04447       -3.15272
H         -1.00407       -2.91284       -1.62328
