#p m062X def2TZVP opt freq
 
5961 glutamine
 
0 1
O         -1.69381       -2.95676        0.90802
O         -1.51812       -2.16986       -1.20977
O          0.69498       -1.52078       -2.33361
N         -2.08916       -0.60840        1.91681
N          1.60819       -2.49001       -0.45865
C          0.13380       -0.23550        0.87580
C         -1.34240       -0.60860        0.65900
C          1.00320       -0.14580       -0.38390
C         -1.52784       -1.96184       -0.00328
C          1.08373       -1.43633       -1.17104
H          0.19040        0.72360        1.40710
H          0.57830       -0.97640        1.55450
H         -1.80441        0.13693        0.00096
H          0.60879        0.61638       -1.06545
H          2.02310        0.14925       -0.11047
H         -1.76590       -1.36343        2.51990
H         -3.07436       -0.79406        1.73198
H          1.91622       -2.39287        0.50362
H          1.70649       -3.40808       -0.87922
H         -1.80660       -3.83109        0.47770
