#p m062X def2TZVP opt freq
 
5961 glutamine
 
0 1
O         -1.28462        0.91007       -1.18211
O         -3.26424        0.69113       -0.10124
O          3.27754        0.32338       -1.01175
N         -1.48140       -1.94169        0.07309
N          2.72950        0.41525        1.21985
C          0.13380       -0.23550        0.87580
C         -1.34240       -0.60860        0.65900
C          1.00320       -0.14580       -0.38390
C         -2.08694        0.37769       -0.22256
C          2.44577        0.22436       -0.11276
H          0.19040        0.72360        1.40710
H          0.57830       -0.97640        1.55450
H         -1.85227       -0.62009        1.62966
H          1.01661       -1.10879       -0.90683
H          0.58496        0.59919       -1.07098
H         -1.11875       -1.94883       -0.87912
H         -2.46879       -2.18546        0.00318
H          2.02309        0.32094        1.94260
H          3.66524        0.66144        1.52512
H         -1.76634        1.55212       -1.74607
