#p m062X def2TZVP opt freq
 
5962 lysine
 
0 1
O         -0.53428        2.64245       -0.40009
O         -2.44220        2.26188        0.76226
N         -1.45654        0.37329       -1.83909
N          2.43974        1.02317        2.25199
C          1.16740        0.32920       -0.30510
C         -0.15550       -0.29580        0.15860
C          2.40660       -0.38260        0.24350
C         -1.41486        0.39772       -0.37630
C          2.42501       -0.35355        1.77173
C         -1.52691        1.84309        0.06261
H          1.20030        1.38180        0.00090
H          1.20160        0.31620       -1.40170
H         -0.18141       -0.30997        1.25662
H         -0.17032       -1.34864       -0.15188
H          3.30893        0.10104       -0.15092
H          2.41504       -1.42106       -0.11074
H         -2.30713       -0.12241       -0.00858
H          3.30836       -0.87910        2.15061
H          1.53899       -0.86042        2.16889
H         -0.65733        0.87875       -2.21916
H         -2.29193        0.85267       -2.17210
H          3.27545        1.49673        1.91135
H          2.50461        1.02550        3.26908
H         -0.64359        3.57111       -0.10372
