#p m062X def2TZVP opt freq
 
5962 lysine
 
0 1
O         -2.75934       -1.75966       -0.24887
O         -1.70115       -3.28873        1.04659
N         -0.32236       -1.92385       -1.69957
N          3.73394        1.67779        0.17796
C          1.16740        0.32920       -0.30510
C         -0.15550       -0.29580        0.15860
C          2.40660       -0.38260        0.24350
C         -0.34796       -1.76314       -0.24505
C          3.68858        0.28558       -0.25322
C         -1.64984       -2.35046        0.25939
H          1.20030        1.38180        0.00090
H          1.20160        0.31620       -1.40170
H         -0.99128        0.30432       -0.22591
H         -0.21267       -0.21740        1.25207
H          2.38898       -1.43503       -0.06593
H          2.37792       -0.36736        1.34027
H          0.46414       -2.37026        0.17183
H          3.73958        0.24292       -1.34668
H          4.56471       -0.23918        0.14265
H         -1.08706       -1.39889       -2.12186
H         -0.46785       -2.90224       -1.94482
H          2.93759        2.18301       -0.20838
H          4.56732        2.12285       -0.20425
H         -3.58212       -2.17036        0.09255
