#p m062X def2TZVP opt freq
 
5962 lysine
 
0 1
O         -2.76942       -0.29279        1.53530
O         -1.79164       -1.85844        2.85011
N          0.69193       -1.06234        2.35529
N          3.73394        1.67779        0.17796
C          1.16740        0.32920       -0.30510
C         -0.15550       -0.29580        0.15860
C          2.40660       -0.38260        0.24350
C         -0.36232       -0.30560        1.67853
C          3.68858        0.28558       -0.25322
C         -1.69261       -0.90060        2.09156
H          1.20030        1.38180        0.00090
H          1.20160        0.31620       -1.40170
H         -0.22425       -1.32134       -0.22878
H         -0.98259        0.25387       -0.30925
H          2.38898       -1.43503       -0.06593
H          2.37792       -0.36736        1.34027
H         -0.33404        0.72123        2.06157
H          3.73958        0.24292       -1.34668
H          4.56471       -0.23918        0.14265
H          0.67503       -2.03421        2.04892
H          0.52572       -1.06898        3.36072
H          2.93759        2.18301       -0.20838
H          4.56732        2.12285       -0.20425
H         -3.61155       -0.70891        1.81788
