#p m062X def2TZVP opt freq
 
5962 lysine
 
0 1
O          0.45109       -3.25730        1.47070
O          1.79422       -2.87362       -0.31391
N         -1.62943       -2.28405        0.23306
N          3.74804        0.24749       -1.70967
C          1.16740        0.32920       -0.30510
C         -0.15550       -0.29580        0.15860
C          2.40660       -0.38260        0.24350
C         -0.34796       -1.76314       -0.24505
C          3.68858        0.28558       -0.25322
C          0.74322       -2.67099        0.28357
H          1.20030        1.38180        0.00090
H          1.20160        0.31620       -1.40170
H         -0.99128        0.30432       -0.22591
H         -0.21267       -0.21740        1.25207
H          2.38898       -1.43503       -0.06593
H          2.37792       -0.36736        1.34027
H         -0.33979       -1.84949       -1.33792
H          4.56634       -0.22412        0.15885
H          3.72228        1.32906        0.07799
H         -1.66101       -2.25151        1.25120
H         -1.72861       -3.26302       -0.03218
H          3.74586       -0.72061       -2.02821
H          4.63098        0.64913       -2.02237
H          1.17514       -3.84354        1.77774
