#p m062X def2TZVP opt freq
 
5962 lysine
 
0 1
O         -1.81124       -2.27049        1.60324
O         -2.49435       -2.84221       -0.48064
N         -0.32236       -1.92385       -1.69957
N          2.43974        1.02317        2.25199
C          1.16740        0.32920       -0.30510
C         -0.15550       -0.29580        0.15860
C          2.40660       -0.38260        0.24350
C         -0.34796       -1.76314       -0.24505
C          2.42501       -0.35355        1.77173
C         -1.64984       -2.35046        0.25939
H          1.20030        1.38180        0.00090
H          1.20160        0.31620       -1.40170
H         -0.99128        0.30432       -0.22591
H         -0.21267       -0.21740        1.25207
H          3.30893        0.10104       -0.15092
H          2.41504       -1.42106       -0.11074
H          0.46414       -2.37026        0.17183
H          3.30836       -0.87910        2.15061
H          1.53899       -0.86042        2.16889
H         -1.08706       -1.39889       -2.12186
H         -0.46785       -2.90224       -1.94482
H          3.27545        1.49673        1.91135
H          2.50461        1.02550        3.26908
H         -2.66729       -2.65203        1.89274
