#p m062X def2TZVP opt freq
 
5962 lysine
 
0 1
O         -0.84122        1.47622       -2.45538
O         -2.04636       -0.44074       -2.55002
N         -2.63082       -0.25588        0.10987
N          3.74804        0.24749       -1.70967
C          1.16740        0.32920       -0.30510
C         -0.15550       -0.29580        0.15860
C          2.40660       -0.38260        0.24350
C         -1.41486        0.39772       -0.37630
C          3.68858        0.28558       -0.25322
C         -1.48003        0.42268       -1.88938
H          1.20030        1.38180        0.00090
H          1.20160        0.31620       -1.40170
H         -0.18141       -0.30997        1.25662
H         -0.17032       -1.34864       -0.15188
H          2.38898       -1.43503       -0.06593
H          2.37792       -0.36736        1.34027
H         -1.43642        1.43903       -0.03409
H          4.56634       -0.22412        0.15885
H          3.72228        1.32906        0.07799
H         -2.66320       -1.22029       -0.21805
H         -3.45322        0.21078       -0.27020
H          3.74586       -0.72061       -2.02821
H          4.63098        0.64913       -2.02237
H         -0.89672        1.45531       -3.43450
