#p m062X def2TZVP opt freq
 
5962 lysine
 
0 1
O          1.74414       -0.37219        2.85036
O          0.59732       -2.31270        2.61527
N         -0.35168        1.05134        2.22691
N          4.85806       -0.40437        0.27830
C          1.16740        0.32920       -0.30510
C         -0.15550       -0.29580        0.15860
C          2.40660       -0.38260        0.24350
C         -0.36232       -0.30560        1.67853
C          3.68858        0.28558       -0.25322
C          0.69130       -1.10706        2.41461
H          1.20030        1.38180        0.00090
H          1.20160        0.31620       -1.40170
H         -0.22425       -1.32134       -0.22878
H         -0.98259        0.25387       -0.30925
H          2.38898       -1.43503       -0.06593
H          2.37792       -0.36736        1.34027
H         -1.33437       -0.75355        1.91594
H          3.71447        1.33551        0.05827
H          3.72665        0.26091       -1.34758
H          0.55210        1.48982        2.05491
H         -0.47446        1.01967        3.23809
H          4.84774       -0.36307        1.29657
H          5.70213        0.08342       -0.01885
H          2.40111       -0.92130        3.32895
