#p m062X def2TZVP opt freq
 
5962 lysine
 
0 1
O          1.48919       -3.26283       -0.68164
O          0.94820       -2.84632        1.47935
N         -1.62943       -2.28405        0.23306
N          4.85806       -0.40437        0.27830
C          1.16740        0.32920       -0.30510
C         -0.15550       -0.29580        0.15860
C          2.40660       -0.38260        0.24350
C         -0.34796       -1.76314       -0.24505
C          3.68858        0.28558       -0.25322
C          0.74322       -2.67099        0.28357
H          1.20030        1.38180        0.00090
H          1.20160        0.31620       -1.40170
H         -0.99128        0.30432       -0.22591
H         -0.21267       -0.21740        1.25207
H          2.38898       -1.43503       -0.06593
H          2.37792       -0.36736        1.34027
H         -0.33979       -1.84949       -1.33792
H          3.71447        1.33551        0.05827
H          3.72665        0.26091       -1.34758
H         -1.66101       -2.25151        1.25120
H         -1.72861       -3.26302       -0.03218
H          4.84774       -0.36307        1.29657
H          5.70213        0.08342       -0.01885
H          2.18998       -3.83558       -0.30344
