#p m062X def2TZVP opt freq
 
5962 lysine
 
0 1
O         -2.16663       -0.61256       -2.43274
O         -0.97137        1.30818       -2.56747
N         -2.63082       -0.25588        0.10987
N          4.85806       -0.40437        0.27830
C          1.16740        0.32920       -0.30510
C         -0.15550       -0.29580        0.15860
C          2.40660       -0.38260        0.24350
C         -1.41486        0.39772       -0.37630
C          3.68858        0.28558       -0.25322
C         -1.48003        0.42268       -1.88938
H          1.20030        1.38180        0.00090
H          1.20160        0.31620       -1.40170
H         -0.18141       -0.30997        1.25662
H         -0.17032       -1.34864       -0.15188
H          2.38898       -1.43503       -0.06593
H          2.37792       -0.36736        1.34027
H         -1.43642        1.43903       -0.03409
H          3.71447        1.33551        0.05827
H          3.72665        0.26091       -1.34758
H         -2.66320       -1.22029       -0.21805
H         -3.45322        0.21078       -0.27020
H          4.84774       -0.36307        1.29657
H          5.70213        0.08342       -0.01885
H         -2.19548       -0.55936       -3.41179
