#p m062X def2TZVP opt freq
 
5962 lysine
 
0 1
O          0.79727       -2.74476        1.63635
O          1.50367       -3.29889       -0.44451
N         -1.62943       -2.28405        0.23306
N          3.73394        1.67779        0.17796
C          1.16740        0.32920       -0.30510
C         -0.15550       -0.29580        0.15860
C          2.40660       -0.38260        0.24350
C         -0.34796       -1.76314       -0.24505
C          3.68858        0.28558       -0.25322
C          0.74322       -2.67099        0.28357
H          1.20030        1.38180        0.00090
H          1.20160        0.31620       -1.40170
H         -0.99128        0.30432       -0.22591
H         -0.21267       -0.21740        1.25207
H          2.38898       -1.43503       -0.06593
H          2.37792       -0.36736        1.34027
H         -0.33979       -1.84949       -1.33792
H          3.73958        0.24292       -1.34668
H          4.56471       -0.23918        0.14265
H         -1.66101       -2.25151        1.25120
H         -1.72861       -3.26302       -0.03218
H          2.93759        2.18301       -0.20838
H          4.56732        2.12285       -0.20425
H          1.50863       -3.34691        1.94226
