#p m062X def2TZVP opt freq
 
5962 lysine
 
0 1
O         -2.12677       -3.37212       -0.49368
O         -2.21853       -1.95077        1.26910
N         -0.32236       -1.92385       -1.69957
N          3.61086       -1.03522        2.27702
C          1.16740        0.32920       -0.30510
C         -0.15550       -0.29580        0.15860
C          2.40660       -0.38260        0.24350
C         -0.34796       -1.76314       -0.24505
C          2.42501       -0.35355        1.77173
C         -1.64984       -2.35046        0.25939
H          1.20030        1.38180        0.00090
H          1.20160        0.31620       -1.40170
H         -0.99128        0.30432       -0.22591
H         -0.21267       -0.21740        1.25207
H          3.30893        0.10104       -0.15092
H          2.41504       -1.42106       -0.11074
H          0.46414       -2.37026        0.17183
H          1.52893       -0.84081        2.17132
H          2.42944        0.68189        2.12884
H         -1.08706       -1.39889       -2.12186
H         -0.46785       -2.90224       -1.94482
H          3.60282       -2.00827        1.97404
H          3.58208       -1.05292        3.29562
H         -2.96479       -3.73273       -0.13330
