#p m062X def2TZVP opt freq
 
5962 lysine
 
0 1
O          0.84921       -2.27950       -2.27359
O         -1.37578       -1.87676       -2.42623
N          0.70719       -2.61180        0.31040
N          3.61086       -1.03522        2.27702
C          1.16740        0.32920       -0.30510
C         -0.15550       -0.29580        0.15860
C          2.40660       -0.38260        0.24350
C         -0.34796       -1.76314       -0.24505
C          2.42501       -0.35355        1.77173
C         -0.36024       -1.96800       -1.74577
H          1.20030        1.38180        0.00090
H          1.20160        0.31620       -1.40170
H         -0.99128        0.30432       -0.22591
H         -0.21267       -0.21740        1.25207
H          3.30893        0.10104       -0.15092
H          2.41504       -1.42106       -0.11074
H         -1.30719       -2.12904        0.13952
H          1.52893       -0.84081        2.17132
H          2.42944        0.68189        2.12884
H          1.61454       -2.32250       -0.05251
H          0.56843       -3.57776        0.01672
H          3.60282       -2.00827        1.97404
H          3.58208       -1.05292        3.29562
H          0.80190       -2.41310       -3.24421
