#p m062X def2TZVP opt freq
 
5962 lysine
 
0 1
O         -2.24114        2.62635       -0.78283
O         -1.03020        2.26904        1.09920
N         -1.45654        0.37329       -1.83909
N          1.25778       -2.54814        0.28813
C          1.16740        0.32920       -0.30510
C         -0.15550       -0.29580        0.15860
C          2.40660       -0.38260        0.24350
C         -1.41486        0.39772       -0.37630
C          2.43971       -1.84580       -0.19766
C         -1.52691        1.84309        0.06261
H          1.20030        1.38180        0.00090
H          1.20160        0.31620       -1.40170
H         -0.18141       -0.30997        1.25662
H         -0.17032       -1.34864       -0.15188
H          2.40643       -0.32189        1.33894
H          3.30784        0.13457       -0.10901
H         -2.30713       -0.12241       -0.00858
H          3.33855       -2.33843        0.18896
H          2.46818       -1.90918       -1.29075
H         -0.65733        0.87875       -2.21916
H         -2.29193        0.85267       -2.17210
H          1.23600       -2.51987        1.30666
H          1.32012       -3.53234        0.03093
H         -2.29993        3.55187       -0.46322
