#p m062X def2TZVP opt freq
 
145742 proline
 
0 1
O          2.02964        1.06393        0.64403
O          1.67505       -0.37403       -1.08866
N         -0.78070        0.93140        0.77700
C          0.08340       -0.24760        0.72510
C         -0.72350       -1.31710       -0.00310
C         -1.98880       -0.61060       -0.47520
C         -1.64990        0.86350       -0.39330
C          1.32890        0.11490       -0.02350
H          0.36250       -0.55220        1.73890
H         -0.98730       -2.14290        0.66710
H         -0.19190       -1.74110       -0.86240
H         -2.27980       -0.91570       -1.48480
H         -2.81870       -0.84850        0.20180
H         -1.12040        1.19320       -1.29450
H         -2.54240        1.48310       -0.26940
H         -0.25090        1.80030        0.80230
H          2.85142        1.31387        0.17023
