#p m062X def2TZVP opt freq
 
6106 leucine
 
0 1
O          2.97101        1.27487        0.22245
O          1.60534        2.92588       -0.51978
N          0.26075        1.07324        1.69205
C         -1.80210        0.19050       -0.40870
C         -0.56430        1.07930       -0.64940
C          0.62490        0.84080        0.29480
C         -2.41776        0.41182        0.97329
C         -1.41841       -1.28317       -0.57294
C          1.74836        1.80541       -0.04795
H         -2.54830        0.44455       -1.17182
H         -0.24450        0.95730       -1.69370
H         -0.87980        2.12730       -0.55310
H          0.98642       -0.18867        0.20937
H         -1.75956        0.07908        1.78184
H         -2.64547        1.47117        1.13078
H         -3.35538       -0.14751        1.06423
H         -0.77813       -1.45425       -1.44302
H         -0.99713       -1.73853        0.32366
H         -2.33648       -1.85463       -0.76462
H         -0.48725        0.43282        1.95685
H         -0.12985        2.00983        1.79504
H          3.69625        1.89540       -0.00402
