#p m062X def2TZVP opt freq
 
6106 leucine
 
0 1
O         -0.27558        2.33136        1.92736
O          0.22328        0.23312        2.62756
N          1.12283       -0.53114        0.20102
C         -1.80210        0.19050       -0.40870
C         -0.56430        1.07930       -0.64940
C          0.62490        0.84080        0.29480
C         -2.91423        0.45391       -1.42443
C         -2.33333        0.41954        1.00947
C          0.18674        1.06735        1.73244
H         -1.48369       -0.85562       -0.49798
H         -0.24450        0.95730       -1.69370
H         -0.87980        2.12730       -0.55310
H          1.45236        1.51504        0.05288
H         -3.34874        1.45272       -1.31831
H         -2.53703        0.35119       -2.44719
H         -3.72550       -0.27077       -1.29426
H         -1.53322        0.46311        1.75392
H         -3.00707        1.27165        1.10280
H         -2.94819       -0.44718        1.28678
H          1.43443       -0.71257       -0.75279
H          0.36009       -1.18679        0.37051
H         -0.56355        2.47577        2.85393
