#p m062X def2TZVP opt freq
 
6140 phenylalanine
 
0 1
O         -1.55792       -1.06562       -1.87955
O         -2.21275       -1.59073        0.22786
N         -2.96574        1.21538        0.15347
C         -0.60900        0.98120        0.79050
C         -1.66520        0.72410       -0.29570
C          0.75930        0.46120        0.41410
C          1.81234        0.62241        1.29931
C          0.93306       -0.16659       -0.80819
C         -1.83695       -0.75697       -0.58629
C          3.07513        0.14236        0.95228
C          2.19595       -0.64676       -1.15506
C          3.26693       -0.49222       -0.27491
H         -0.91800        0.53780        1.74710
H         -0.51610        2.05890        0.98590
H         -1.42251        1.24101       -1.23130
H          1.67447        1.11731        2.25630
H          0.10472       -0.29400       -1.49909
H         -2.91286        2.22023        0.31778
H         -3.20096        0.79927        1.05440
H          3.90921        0.26299        1.63743
H          2.34535       -1.14153       -2.11039
H          4.25022       -0.86614       -0.54504
H         -1.68320       -2.02104       -2.06256
