#p m062X def2TZVP opt freq
 
6140 phenylalanine
 
0 1
O         -1.00218       -1.19157       -1.56606
O         -2.64965       -1.48845       -0.03521
N         -2.96574        1.21538        0.15347
C         -0.60900        0.98120        0.79050
C         -1.66520        0.72410       -0.29570
C          0.75930        0.46120        0.41410
C          0.92372       -0.89016        0.15859
C          1.82152        1.34618        0.33165
C         -1.83695       -0.75697       -0.58629
C          2.18633       -1.37024       -0.18906
C          3.08413        0.86597       -0.01618
C          3.26653       -0.49217       -0.27644
H         -0.91800        0.53780        1.74710
H         -0.51610        2.05890        0.98590
H         -1.42251        1.24101       -1.23130
H          0.08988       -1.58289        0.22630
H          1.68889        2.40583        0.52988
H         -2.91286        2.22023        0.31778
H         -3.20096        0.79927        1.05440
H          2.32851       -2.42784       -0.39137
H          3.92529        1.54970       -0.08491
H          4.24965       -0.86601       -0.54729
H         -1.12771       -2.14546       -1.75674
