#p m062X def2TZVP opt freq
 
6140 phenylalanine
 
0 1
O         -1.55792       -1.06562       -1.87955
O         -2.21275       -1.59073        0.22786
N         -2.96574        1.21538        0.15347
C         -0.60900        0.98120        0.79050
C         -1.66520        0.72410       -0.29570
C          0.75930        0.46120        0.41410
C          1.36348       -0.49588        1.21251
C          1.38174        0.95156       -0.72186
C         -1.83695       -0.75697       -0.58629
C          2.62611       -0.97612        0.86519
C          2.64440        0.47110       -1.06918
C          3.26657       -0.49263       -0.27565
H         -0.91800        0.53780        1.74710
H         -0.51610        2.05890        0.98590
H         -1.42251        1.24101       -1.23130
H          0.87468       -0.87724        2.10436
H          0.90422        1.70006       -1.34753
H         -2.91286        2.22023        0.31778
H         -3.20096        0.79927        1.05440
H          3.11081       -1.72628        1.48326
H          3.14301        0.84702       -1.95791
H          4.24970       -0.86671       -0.54614
H         -1.68320       -2.02104       -2.06256
