#p m062X def2TZVP opt freq
 
6322 arginine
 
0 1
O         -3.85846        2.04637       -1.38978
O         -2.80338        2.25245        0.60820
N         -2.81204       -0.02701       -2.12621
N          1.85621        1.39565        1.75985
N          1.49323        1.00614        4.01563
N          1.49857       -0.81080        2.63959
C         -0.76980        0.49290       -0.86970
C         -0.17130        0.87480        0.49210
C         -2.29663        0.33541       -0.80828
C          1.34470        1.03260        0.43730
C         -2.99490        1.62787       -0.42705
C          1.63060        0.55747        2.72322
H         -0.32590       -0.44586       -1.22172
H         -0.51159        1.26182       -1.60903
H         -0.59460        1.82110        0.84740
H         -0.41860        0.10880        1.23690
H         -2.57585       -0.43785       -0.08462
H          1.79439        0.09190        0.09690
H          1.58308        1.81640       -0.29186
H         -3.81031       -0.22392       -2.06261
H         -2.37299       -0.89210       -2.43923
H         -4.29977        2.88721       -1.14402
H          1.56547        1.99309        4.23772
H          1.31678        0.36716        4.78305
H          1.32198       -1.37018        3.46714
H          1.56924       -1.30857        1.75927
