#p m062X def2TZVP opt freq
 
6322 arginine
 
0 1
O         -3.52629       -0.17363        1.17505
O         -2.39345       -1.88076        0.20041
N         -2.90908        1.59251       -0.38572
N          1.96196       -0.22596        0.01585
N          1.43654       -2.43157       -0.46499
N          0.53680       -1.54331        1.43138
C         -0.76980        0.49290       -0.86970
C         -0.17130        0.87480        0.49210
C         -2.29663        0.33541       -0.80828
C          1.34470        1.03260        0.43730
C         -2.72880       -0.70349        0.21020
C          1.33850       -1.31737        0.33466
H         -0.32590       -0.44586       -1.22172
H         -0.51159        1.26182       -1.60903
H         -0.59460        1.82110        0.84740
H         -0.41860        0.10880        1.23690
H         -2.69463        0.04949       -1.78778
H          1.59965        1.83815       -0.26207
H          1.69782        1.31438        1.43668
H         -3.92427        1.51471       -0.43751
H         -2.64931        2.33468       -1.03444
H         -3.79478       -0.84601        1.83685
H          1.99367       -2.42050       -1.31240
H          0.95677       -3.29449       -0.23356
H          0.09641       -2.44497        1.57974
H          0.35779       -0.82835        2.12747
