#p m062X def2TZVP opt freq
 
6322 arginine
 
0 1
O         -2.15585        0.35644       -3.19251
O         -3.90997       -0.75233       -2.27532
N         -2.64995       -0.71204        0.14667
N          1.96196       -0.22596        0.01585
N          3.56359       -1.76838        0.66986
N          4.13557        0.43423        0.79677
C         -0.76980        0.49290       -0.86970
C         -0.17130        0.87480        0.49210
C         -2.29663        0.33541       -0.80828
C          1.34470        1.03260        0.43730
C         -2.88600       -0.09554       -2.13881
C          3.15245       -0.47209        0.46717
H         -0.32590       -0.44586       -1.22172
H         -0.51159        1.26182       -1.60903
H         -0.59460        1.82110        0.84740
H         -0.41860        0.10880        1.23690
H         -2.76958        1.27596       -0.50617
H          1.59965        1.83815       -0.26207
H          1.69782        1.31438        1.43668
H         -3.66280       -0.74949        0.25661
H         -2.27470       -0.47834        1.06521
H         -2.54586        0.08454       -4.05049
H          2.94819       -2.54988        0.47194
H          4.49015       -1.98206        1.02224
H          5.03696        0.12418        1.14362
H          4.00175        1.43499        0.70557
