#p m062X def2TZVP opt freq
 
6322 arginine
 
0 1
O          0.40752       -2.20357        0.46343
O         -1.53879       -2.71351       -0.58511
N         -0.81215       -1.15207       -2.68963
N          1.96196       -0.22596        0.01585
N          3.32341        0.95573       -1.44089
N          2.87119       -1.21301       -1.97646
C         -0.76980        0.49290       -0.86970
C         -0.17130        0.87480        0.49210
C         -0.21110       -0.83782       -1.39583
C          1.34470        1.03260        0.43730
C         -0.54597       -2.00447       -0.48469
C          2.66703       -0.19474       -1.07201
H         -0.56446        1.28299       -1.60171
H         -1.86124        0.42057       -0.77995
H         -0.59460        1.82110        0.84740
H         -0.41860        0.10880        1.23690
H          0.87726       -0.78281       -1.50549
H          1.59965        1.83815       -0.26207
H          1.69782        1.31438        1.43668
H         -0.37119       -1.98402       -3.08048
H         -0.62275       -0.39667       -3.34738
H          0.19237       -2.96476        1.04350
H          3.26854        1.79467       -0.87363
H          3.87956        1.00090       -2.28766
H          3.44700       -1.07291       -2.79972
H          2.46188       -2.13281       -1.85743
