#p m062X def2TZVP opt freq
 
6322 arginine
 
0 1
O         -0.04000       -1.83881        0.76601
O         -1.17515       -3.00010       -0.81842
N         -0.81215       -1.15207       -2.68963
N          1.70236        2.08283       -0.51753
N          3.89369        1.32820       -0.49226
N          3.56140        3.52422       -1.00397
C         -0.76980        0.49290       -0.86970
C         -0.17130        0.87480        0.49210
C         -0.21110       -0.83782       -1.39583
C          1.34470        1.03260        0.43730
C         -0.54597       -2.00447       -0.48469
C          2.96665        2.32813       -0.66896
H         -0.56446        1.28299       -1.60171
H         -1.86124        0.42057       -0.77995
H         -0.59460        1.82110        0.84740
H         -0.41860        0.10880        1.23690
H          0.87726       -0.78281       -1.50549
H          1.71920        1.28008        1.43806
H          1.77971        0.07387        0.12998
H         -0.37119       -1.98402       -3.08048
H         -0.62275       -0.39667       -3.34738
H         -0.24978       -2.59961        1.34854
H          3.60816        0.38775       -0.24197
H          4.88675        1.49941       -0.60572
H          4.56888        3.59931       -1.09494
H          3.02417        4.36710       -1.17336
