#p m062X def2TZVP opt freq
 
6322 arginine
 
0 1
O         -0.66663        0.01557       -3.76910
O         -1.92261        1.90186       -3.87867
N         -1.05055        2.83332       -1.55050
N          1.85621        1.39565        1.75985
N          3.47324        2.50603        2.99448
N          3.65995        2.59792        0.72480
C         -0.76980        0.49290       -0.86970
C         -0.17130        0.87480        0.49210
C         -0.47944        1.54863       -1.94715
C          1.34470        1.03260        0.43730
C         -1.11575        1.20192       -3.28068
C          2.93035        2.12145        1.79121
H         -1.85465        0.36361       -0.77685
H         -0.36184       -0.47505       -1.18776
H         -0.59460        1.82110        0.84740
H         -0.41860        0.10880        1.23690
H          0.59983        1.66193       -2.09524
H          1.79439        0.09190        0.09690
H          1.58308        1.81640       -0.29186
H         -0.77576        3.55259       -2.21869
H         -0.66095        3.11834       -0.65267
H         -1.07247       -0.19967       -4.63578
H          3.04691        2.23157        3.87285
H          4.31233        3.07362        3.04064
H          4.49071        3.16148        0.87029
H          3.40175        2.40598       -0.23657
