#p m062X def2TZVP opt freq
 
6322 arginine
 
0 1
O         -2.01803       -0.85094       -2.86248
O         -3.99973        0.20765       -2.54650
N         -2.64995       -0.71204        0.14667
N          1.70236        2.08283       -0.51753
N          3.84068        2.13676        0.37504
N          3.61000        2.78341       -1.79830
C         -0.76980        0.49290       -0.86970
C         -0.17130        0.87480        0.49210
C         -2.29663        0.33541       -0.80828
C          1.34470        1.03260        0.43730
C         -2.88600       -0.09554       -2.13881
C          2.96665        2.32813       -0.66896
H         -0.32590       -0.44586       -1.22172
H         -0.51159        1.26182       -1.60903
H         -0.59460        1.82110        0.84740
H         -0.41860        0.10880        1.23690
H         -2.76958        1.27596       -0.50617
H          1.71920        1.28008        1.43806
H          1.77971        0.07387        0.12998
H         -3.66280       -0.74949        0.25661
H         -2.27470       -0.47834        1.06521
H         -2.39893       -1.11858       -3.72588
H          3.51534        1.80307        1.27582
H          4.83273        2.32289        0.27725
H          4.61200        2.94129       -1.80094
H          3.11593        2.97490       -2.66257
