#p m062X def2TZVP opt freq
 
6322 arginine
 
0 1
O         -4.15539        1.40392        0.24438
O         -2.59399        2.75166       -0.70072
N         -2.81204       -0.02701       -2.12621
N          1.70236        2.08283       -0.51753
N          3.89131        1.32104       -0.50322
N          3.18252        2.39727       -2.38315
C         -0.76980        0.49290       -0.86970
C         -0.17130        0.87480        0.49210
C         -2.29663        0.33541       -0.80828
C          1.34470        1.03260        0.43730
C         -2.99490        1.62787       -0.42705
C          2.84206        1.95752       -1.12327
H         -0.32590       -0.44586       -1.22172
H         -0.51159        1.26182       -1.60903
H         -0.59460        1.82110        0.84740
H         -0.41860        0.10880        1.23690
H         -2.57585       -0.43785       -0.08462
H          1.71920        1.28008        1.43806
H          1.77971        0.07387        0.12998
H         -3.81031       -0.22392       -2.06261
H         -2.37299       -0.89210       -2.43923
H         -4.60859        2.24142        0.47972
H          3.79419        0.94098        0.43205
H          4.79046        1.21289       -0.95949
H          4.11260        2.24210       -2.75705
H          2.52605        2.88563       -2.98172
