#p m062X def2TZVP opt freq
 
6322 arginine
 
0 1
O          0.40752       -2.20357        0.46343
O         -1.53879       -2.71351       -0.58511
N         -0.81215       -1.15207       -2.68963
N          1.85621        1.39565        1.75985
N          2.89818        3.13100        2.88896
N          1.14001        3.67853        1.54591
C         -0.76980        0.49290       -0.86970
C         -0.17130        0.87480        0.49210
C         -0.21110       -0.83782       -1.39583
C          1.34470        1.03260        0.43730
C         -0.54597       -2.00447       -0.48469
C          1.93408        2.66194        2.02816
H         -0.56446        1.28299       -1.60171
H         -1.86124        0.42057       -0.77995
H         -0.59460        1.82110        0.84740
H         -0.41860        0.10880        1.23690
H          0.87726       -0.78281       -1.50549
H          1.79439        0.09190        0.09690
H          1.58308        1.81640       -0.29186
H         -0.37119       -1.98402       -3.08048
H         -0.62275       -0.39667       -3.34738
H          0.19237       -2.96476        1.04350
H          3.56088        2.50029        3.32674
H          2.97575        4.11720        3.11201
H          1.29446        4.64063        1.82776
H          0.38003        3.51004        0.89645
