#p m062X def2TZVP opt freq
 
6322 arginine
 
0 1
O         -4.15152        0.36916       -2.31263
O         -2.31890       -0.79845       -2.96516
N         -2.64995       -0.71204        0.14667
N          1.85621        1.39565        1.75985
N          2.07981        0.82452        3.99499
N          0.96127       -0.64436        2.65857
C         -0.76980        0.49290       -0.86970
C         -0.17130        0.87480        0.49210
C         -2.29663        0.33541       -0.80828
C          1.34470        1.03260        0.43730
C         -2.88600       -0.09554       -2.13881
C          1.63060        0.55747        2.72322
H         -0.32590       -0.44586       -1.22172
H         -0.51159        1.26182       -1.60903
H         -0.59460        1.82110        0.84740
H         -0.41860        0.10880        1.23690
H         -2.76958        1.27596       -0.50617
H          1.79439        0.09190        0.09690
H          1.58308        1.81640       -0.29186
H         -3.66280       -0.74949        0.25661
H         -2.27470       -0.47834        1.06521
H         -4.53240        0.07977       -3.16899
H          2.59208        1.67514        4.20150
H          1.91403        0.18214        4.76194
H          0.84453       -1.22241        3.48390
H          0.56109       -0.99528        1.79576
