#p m062X def2TZVP opt freq
 
6322 arginine
 
0 1
O          1.32132        2.97413       -2.60293
O          1.84084        0.82163       -2.10854
N         -1.06947        1.13639       -3.21831
N          1.85621        1.39565        1.75985
N          2.89818        3.13100        2.88896
N          1.14001        3.67853        1.54591
C         -0.76980        0.49290       -0.86970
C         -0.17130        0.87480        0.49210
C         -0.47944        1.54863       -1.94715
C          1.34470        1.03260        0.43730
C          1.00654        1.71177       -2.20918
C          1.93408        2.66194        2.02816
H         -1.85465        0.36361       -0.77685
H         -0.36184       -0.47505       -1.18776
H         -0.59460        1.82110        0.84740
H         -0.41860        0.10880        1.23690
H         -0.89038        2.52096       -1.65513
H          1.79439        0.09190        0.09690
H          1.58308        1.81640       -0.29186
H         -0.95832        1.88056       -3.90621
H         -2.07390        1.00617       -3.10303
H          2.28086        3.07248       -2.78120
H          3.56088        2.50029        3.32674
H          2.97575        4.11720        3.11201
H          1.29446        4.64063        1.82776
H          0.38003        3.51004        0.89645
