#p m062X def2TZVP opt freq
 
6322 arginine
 
0 1
O         -3.71744        1.50104        0.71731
O         -2.94876        2.66880       -1.06960
N         -2.81204       -0.02701       -2.12621
N          1.96196       -0.22596        0.01585
N          1.55043       -1.10774        2.11944
N          1.68805       -2.58326        0.38777
C         -0.76980        0.49290       -0.86970
C         -0.17130        0.87480        0.49210
C         -2.29663        0.33541       -0.80828
C          1.34470        1.03260        0.43730
C         -2.99490        1.62787       -0.42705
C          1.74919       -1.26092        0.76758
H         -0.32590       -0.44586       -1.22172
H         -0.51159        1.26182       -1.60903
H         -0.59460        1.82110        0.84740
H         -0.41860        0.10880        1.23690
H         -2.57585       -0.43785       -0.08462
H          1.59965        1.83815       -0.26207
H          1.69782        1.31438        1.43668
H         -3.81031       -0.22392       -2.06261
H         -2.37299       -0.89210       -2.43923
H         -4.17537        2.33545        0.95443
H          1.56665       -0.18977        2.55035
H          1.38276       -1.90405        2.72454
H          1.51446       -3.31489        1.06860
H          1.81014       -2.87603       -0.57510
