#p m062X def2TZVP opt freq
 
6322 arginine
 
0 1
O          1.58132        0.55560       -2.63415
O          1.64133        2.74510       -2.04246
N         -1.06947        1.13639       -3.21831
N          1.85621        1.39565        1.75985
N          3.48749        2.68536        2.78337
N          2.29956        3.66293        1.10172
C         -0.76980        0.49290       -0.86970
C         -0.17130        0.87480        0.49210
C         -0.47944        1.54863       -1.94715
C          1.34470        1.03260        0.43730
C          1.00654        1.71177       -2.20918
C          2.48977        2.52338        1.85127
H         -1.85465        0.36361       -0.77685
H         -0.36184       -0.47505       -1.18776
H         -0.59460        1.82110        0.84740
H         -0.41860        0.10880        1.23690
H         -0.89038        2.52096       -1.65513
H          1.79439        0.09190        0.09690
H          1.58308        1.81640       -0.29186
H         -0.95832        1.88056       -3.90621
H         -2.07390        1.00617       -3.10303
H          2.54344        0.66272       -2.79233
H          3.74422        1.93190        3.41186
H          3.99469        3.55909        2.87113
H          2.85863        4.49379        1.26311
H          1.60396        3.71715        0.36623
