#p m062X def2TZVP opt freq
 
6322 arginine
 
0 1
O          1.43410        2.97797       -1.96094
O          1.74996        0.82974       -2.61891
N         -1.06947        1.13639       -3.21831
N          1.85621        1.39565        1.75985
N          3.20089        3.00506        0.77311
N          3.90921        2.14112        2.75973
C         -0.76980        0.49290       -0.86970
C         -0.17130        0.87480        0.49210
C         -0.47944        1.54863       -1.94715
C          1.34470        1.03260        0.43730
C          1.00654        1.71177       -2.20918
C          2.93035        2.12145        1.79121
H         -1.85465        0.36361       -0.77685
H         -0.36184       -0.47505       -1.18776
H         -0.59460        1.82110        0.84740
H         -0.41860        0.10880        1.23690
H         -0.89038        2.52096       -1.65513
H          1.79439        0.09190        0.09690
H          1.58308        1.81640       -0.29186
H         -0.95832        1.88056       -3.90621
H         -2.07390        1.00617       -3.10303
H          2.39265        3.08170       -2.14144
H          2.57050        3.10461       -0.01512
H          4.03526        3.58138        0.77862
H          4.71252        2.75512        2.67825
H          3.86696        1.55244        3.58399
