#p m062X def2TZVP opt freq
 
6322 arginine
 
0 1
O          0.40196       -2.97766       -0.52977
O         -1.55552       -2.09413        0.20182
N         -0.81215       -1.15207       -2.68963
N          1.85621        1.39565        1.75985
N          3.54724       -0.16970        1.51065
N          2.91278        0.33798        3.64008
C         -0.76980        0.49290       -0.86970
C         -0.17130        0.87480        0.49210
C         -0.21110       -0.83782       -1.39583
C          1.34470        1.03260        0.43730
C         -0.54597       -2.00447       -0.48469
C          2.70819        0.58087        2.30003
H         -0.56446        1.28299       -1.60171
H         -1.86124        0.42057       -0.77995
H         -0.59460        1.82110        0.84740
H         -0.41860        0.10880        1.23690
H          0.87726       -0.78281       -1.50549
H          1.79439        0.09190        0.09690
H          1.58308        1.81640       -0.29186
H         -0.37119       -1.98402       -3.08048
H         -0.62275       -0.39667       -3.34738
H          0.17659       -3.73422        0.05246
H          3.51546       -0.10072        0.49929
H          4.22018       -0.81265        1.91330
H          3.61334       -0.32716        3.94948
H          2.38052        0.80903        4.36296
