#p m062X def2TZVP opt freq
 
6322 arginine
 
0 1
O         -3.54153       -1.28285       -2.04775
O         -2.77774        0.52267       -3.18982
N         -2.64995       -0.71204        0.14667
N          1.96196       -0.22596        0.01585
N          2.35574        0.69203       -2.07562
N          3.75756       -0.97125       -1.39505
C         -0.76980        0.49290       -0.86970
C         -0.17130        0.87480        0.49210
C         -2.29663        0.33541       -0.80828
C          1.34470        1.03260        0.43730
C         -2.88600       -0.09554       -2.13881
C          2.66703       -0.19474       -1.07201
H         -0.32590       -0.44586       -1.22172
H         -0.51159        1.26182       -1.60903
H         -0.59460        1.82110        0.84740
H         -0.41860        0.10880        1.23690
H         -2.76958        1.27596       -0.50617
H          1.59965        1.83815       -0.26207
H          1.69782        1.31438        1.43668
H         -3.66280       -0.74949        0.25661
H         -2.27470       -0.47834        1.06521
H         -3.91188       -1.56272       -2.91185
H          1.57498        1.33291       -1.98452
H          2.89428        0.73215       -2.93395
H          4.23463       -0.85840       -2.28309
H          4.12501       -1.67663       -0.76643
