#p m062X def2TZVP opt freq
 
6322 arginine
 
0 1
O          1.58132        0.55560       -2.63415
O          1.64133        2.74510       -2.04246
N         -1.06947        1.13639       -3.21831
N          1.96196       -0.22596        0.01585
N          3.93612        0.91116       -0.41041
N          3.56580       -0.99960       -1.59643
C         -0.76980        0.49290       -0.86970
C         -0.17130        0.87480        0.49210
C         -0.47944        1.54863       -1.94715
C          1.34470        1.03260        0.43730
C          1.00654        1.71177       -2.20918
C          3.07771       -0.13829       -0.63909
H         -1.85465        0.36361       -0.77685
H         -0.36184       -0.47505       -1.18776
H         -0.59460        1.82110        0.84740
H         -0.41860        0.10880        1.23690
H         -0.89038        2.52096       -1.65513
H          1.59965        1.83815       -0.26207
H          1.69782        1.31438        1.43668
H         -0.95832        1.88056       -3.90621
H         -2.07390        1.00617       -3.10303
H          2.54344        0.66272       -2.79233
H          3.71422        1.63057        0.26917
H          4.81312        0.99812       -0.91207
H          4.45886       -0.82898       -2.04618
H          3.06073       -1.82961       -1.88578
