#p m062X def2TZVP opt freq
 
6322 arginine
 
0 1
O         -4.15152        0.36916       -2.31263
O         -2.31890       -0.79845       -2.96516
N         -2.64995       -0.71204        0.14667
N          1.85621        1.39565        1.75985
N          3.40179        0.72951        3.35341
N          4.11086        0.79550        1.18832
C         -0.76980        0.49290       -0.86970
C         -0.17130        0.87480        0.49210
C         -2.29663        0.33541       -0.80828
C          1.34470        1.03260        0.43730
C         -2.88600       -0.09554       -2.13881
C          3.05645        0.99993        2.05030
H         -0.32590       -0.44586       -1.22172
H         -0.51159        1.26182       -1.60903
H         -0.59460        1.82110        0.84740
H         -0.41860        0.10880        1.23690
H         -2.76958        1.27596       -0.50617
H          1.79439        0.09190        0.09690
H          1.58308        1.81640       -0.29186
H         -3.66280       -0.74949        0.25661
H         -2.27470       -0.47834        1.06521
H         -4.53240        0.07977       -3.16899
H          2.72962        0.83392        4.10567
H          4.33485        0.41928        3.60147
H          5.01278        0.48250        1.53111
H          4.02980        0.94521        0.18894
