#p m062X def2TZVP opt freq
 
6322 arginine
 
0 1
O         -0.04962       -3.17956       -0.95426
O         -1.20412       -1.92730        0.54458
N         -0.81215       -1.15207       -2.68963
N          1.70236        2.08283       -0.51753
N          3.89131        1.32104       -0.50322
N          3.18252        2.39727       -2.38315
C         -0.76980        0.49290       -0.86970
C         -0.17130        0.87480        0.49210
C         -0.21110       -0.83782       -1.39583
C          1.34470        1.03260        0.43730
C         -0.54597       -2.00447       -0.48469
C          2.84206        1.95752       -1.12327
H         -0.56446        1.28299       -1.60171
H         -1.86124        0.42057       -0.77995
H         -0.59460        1.82110        0.84740
H         -0.41860        0.10880        1.23690
H          0.87726       -0.78281       -1.50549
H          1.71920        1.28008        1.43806
H          1.77971        0.07387        0.12998
H         -0.37119       -1.98402       -3.08048
H         -0.62275       -0.39667       -3.34738
H         -0.27711       -3.93236       -0.36798
H          3.79419        0.94098        0.43205
H          4.79046        1.21289       -0.95949
H          4.11260        2.24210       -2.75705
H          2.52605        2.88563       -2.98172
