#p m062X def2TZVP opt freq
 
6322 arginine
 
0 1
O         -2.34788        2.92186       -1.37448
O         -0.31729        3.93045       -1.45836
N          0.96339        1.70035       -2.11789
N          1.96196       -0.22596        0.01585
N          4.01566        0.56073        0.74760
N          3.72131       -1.69929        0.72594
C         -0.76980        0.49290       -0.86970
C         -0.17130        0.87480        0.49210
C         -0.47944        1.54863       -1.94715
C          1.34470        1.03260        0.43730
C         -1.00203        2.92137       -1.56525
C          3.15245       -0.47209        0.46717
H         -1.85465        0.36361       -0.77685
H         -0.36184       -0.47505       -1.18776
H         -0.59460        1.82110        0.84740
H         -0.41860        0.10880        1.23690
H         -0.92902        1.25830       -2.90275
H          1.59965        1.83815       -0.26207
H          1.69782        1.31438        1.43668
H          1.15297        2.32945       -2.89740
H          1.37396        0.80288       -2.37306
H         -2.68287        3.81295       -1.13804
H          3.73958        1.52653        0.60755
H          4.95065        0.38953        1.10094
H          4.66909       -1.77155        1.08012
H          3.22250       -2.56924        0.57730
