#p m062X def2TZVP opt freq
 
6322 arginine
 
0 1
O         -0.19239        1.06937       -4.26938
O         -2.31764        1.07466       -3.47510
N         -1.05055        2.83332       -1.55050
N          1.85621        1.39565        1.75985
N          2.67663        0.67652        3.80479
N          2.11392       -0.93260        2.29190
C         -0.76980        0.49290       -0.86970
C         -0.17130        0.87480        0.49210
C         -0.47944        1.54863       -1.94715
C          1.34470        1.03260        0.43730
C         -1.11575        1.20192       -3.28068
C          2.18629        0.41892        2.54634
H         -1.85465        0.36361       -0.77685
H         -0.36184       -0.47505       -1.18776
H         -0.59460        1.82110        0.84740
H         -0.41860        0.10880        1.23690
H          0.59983        1.66193       -2.09524
H          1.79439        0.09190        0.09690
H          1.58308        1.81640       -0.29186
H         -0.77576        3.55259       -2.21869
H         -0.66095        3.11834       -0.65267
H         -0.60860        0.85559       -5.13148
H          2.78859        1.62768        4.13853
H          2.94065       -0.07289        4.43490
H          2.40260       -1.61149        2.98811
H          1.77176       -1.29999        1.41116
