#p m062X def2TZVP opt freq
 
6322 arginine
 
0 1
O         -2.46833        1.10060       -3.19149
O         -0.50403        1.00762       -4.32307
N         -1.05055        2.83332       -1.55050
N          1.70236        2.08283       -0.51753
N          2.17099        3.50230        1.25376
N          1.55235        4.47223       -0.71380
C         -0.76980        0.49290       -0.86970
C         -0.17130        0.87480        0.49210
C         -0.47944        1.54863       -1.94715
C          1.34470        1.03260        0.43730
C         -1.11575        1.20192       -3.28068
C          1.79362        3.28934       -0.05112
H         -1.85465        0.36361       -0.77685
H         -0.36184       -0.47505       -1.18776
H         -0.59460        1.82110        0.84740
H         -0.41860        0.10880        1.23690
H          0.59983        1.66193       -2.09524
H          1.71920        1.28008        1.43806
H          1.77971        0.07387        0.12998
H         -0.77576        3.55259       -2.21869
H         -0.66095        3.11834       -0.65267
H         -2.87458        0.86625       -4.05301
H          2.38306        2.72588        1.87086
H          2.24810        4.43770        1.63775
H          1.65645        5.36505       -0.24373
H          1.26676        4.49939       -1.68614
