#p m062X def2TZVP opt freq
 
6322 arginine
 
0 1
O         -2.01803       -0.85094       -2.86248
O         -3.99973        0.20765       -2.54650
N         -2.64995       -0.71204        0.14667
N          1.85621        1.39565        1.75985
N          2.17024        3.56858        1.01704
N          3.50592        2.85401        2.72001
C         -0.76980        0.49290       -0.86970
C         -0.17130        0.87480        0.49210
C         -2.29663        0.33541       -0.80828
C          1.34470        1.03260        0.43730
C         -2.88600       -0.09554       -2.13881
C          2.48977        2.52338        1.85127
H         -0.32590       -0.44586       -1.22172
H         -0.51159        1.26182       -1.60903
H         -0.59460        1.82110        0.84740
H         -0.41860        0.10880        1.23690
H         -2.76958        1.27596       -0.50617
H          1.79439        0.09190        0.09690
H          1.58308        1.81640       -0.29186
H         -3.66280       -0.74949        0.25661
H         -2.27470       -0.47834        1.06521
H         -2.39893       -1.11858       -3.72588
H          1.43908        3.47756        0.32009
H          2.65373        4.45827        1.07223
H          3.93094        3.77484        2.70061
H          3.86484        2.20050        3.40691
