#p m062X def2TZVP opt freq
 
6322 arginine
 
0 1
O         -3.42860       -1.71955       -0.36041
O         -2.50709       -0.64505        1.41268
N         -2.90908        1.59251       -0.38572
N          1.70236        2.08283       -0.51753
N          0.74975        3.69813       -1.87964
N         -0.03819        3.54771        0.25374
C         -0.76980        0.49290       -0.86970
C         -0.17130        0.87480        0.49210
C         -2.29663        0.33541       -0.80828
C          1.34470        1.03260        0.43730
C         -2.72880       -0.70349        0.21020
C          0.84791        3.04573       -0.67331
H         -0.32590       -0.44586       -1.22172
H         -0.51159        1.26182       -1.60903
H         -0.59460        1.82110        0.84740
H         -0.41860        0.10880        1.23690
H         -2.69463        0.04949       -1.78778
H          1.71920        1.28008        1.43806
H          1.77971        0.07387        0.12998
H         -3.92427        1.51471       -0.43751
H         -2.64931        2.33468       -1.03444
H         -3.71486       -2.38330        0.30266
H          1.33928        3.44057       -2.66368
H          0.08843        4.45363       -2.02185
H         -0.66489        4.30975        0.01820
H         -0.10150        3.18003        1.19636
