#p m062X def2TZVP opt freq
 
6322 arginine
 
0 1
O         -1.35071        3.65734       -2.65358
O         -1.08714        3.34886       -0.42133
N          0.96339        1.70035       -2.11789
N          1.96196       -0.22596        0.01585
N          3.33309        0.95576       -1.43176
N          4.11818       -1.04025       -0.66083
C         -0.76980        0.49290       -0.86970
C         -0.17130        0.87480        0.49210
C         -0.47944        1.54863       -1.94715
C          1.34470        1.03260        0.43730
C         -1.00203        2.92137       -1.56525
C          3.07771       -0.13829       -0.63909
H         -1.85465        0.36361       -0.77685
H         -0.36184       -0.47505       -1.18776
H         -0.59460        1.82110        0.84740
H         -0.41860        0.10880        1.23690
H         -0.92902        1.25830       -2.90275
H          1.59965        1.83815       -0.26207
H          1.69782        1.31438        1.43668
H          1.15297        2.32945       -2.89740
H          1.37396        0.80288       -2.37306
H         -1.67808        4.54738       -2.40293
H          2.65881        1.70839       -1.51842
H          4.19909        1.04330       -1.95208
H          4.94968       -0.86540       -1.21489
H          4.09740       -1.90343       -0.12958
