#p m062X def2TZVP opt freq
 
6322 arginine
 
0 1
O         -3.54153       -1.28285       -2.04775
O         -2.77774        0.52267       -3.18982
N         -2.64995       -0.71204        0.14667
N          1.96196       -0.22596        0.01585
N          4.01669       -1.13850       -0.54750
N          3.49181        0.87796       -1.47117
C         -0.76980        0.49290       -0.86970
C         -0.17130        0.87480        0.49210
C         -2.29663        0.33541       -0.80828
C          1.34470        1.03260        0.43730
C         -2.88600       -0.09554       -2.13881
C          3.07771       -0.13829       -0.63909
H         -0.32590       -0.44586       -1.22172
H         -0.51159        1.26182       -1.60903
H         -0.59460        1.82110        0.84740
H         -0.41860        0.10880        1.23690
H         -2.76958        1.27596       -0.50617
H          1.59965        1.83815       -0.26207
H          1.69782        1.31438        1.43668
H         -3.66280       -0.74949        0.25661
H         -2.27470       -0.47834        1.06521
H         -3.91188       -1.56272       -2.91185
H          3.85546       -1.95678        0.02960
H          4.89538       -1.08895       -1.05130
H          4.39338        0.83928       -1.93442
H          2.91966        1.69455       -1.65438
