#p m062X def2TZVP opt freq
 
6322 arginine
 
0 1
O         -0.66447       -3.17203       -1.17059
O         -0.71799       -1.92611        0.72477
N         -0.81215       -1.15207       -2.68963
N          1.85621        1.39565        1.75985
N          2.64337       -0.76822        2.02453
N          2.14477        0.39089        3.92259
C         -0.76980        0.49290       -0.86970
C         -0.17130        0.87480        0.49210
C         -0.21110       -0.83782       -1.39583
C          1.34470        1.03260        0.43730
C         -0.54597       -2.00447       -0.48469
C          2.18629        0.41892        2.54634
H         -0.56446        1.28299       -1.60171
H         -1.86124        0.42057       -0.77995
H         -0.59460        1.82110        0.84740
H         -0.41860        0.10880        1.23690
H          0.87726       -0.78281       -1.50549
H          1.79439        0.09190        0.09690
H          1.58308        1.81640       -0.29186
H         -0.37119       -1.98402       -3.08048
H         -0.62275       -0.39667       -3.34738
H         -0.89110       -3.92138       -0.57958
H          2.72993       -0.90100        1.02279
H          2.90633       -1.54408        2.62223
H          2.42945       -0.43563        4.43714
H          1.83432        1.18500        4.47100
