#p m062X def2TZVP opt freq
 
6322 arginine
 
0 1
O         -4.15539        1.40392        0.24438
O         -2.59399        2.75166       -0.70072
N         -2.81204       -0.02701       -2.12621
N          1.70236        2.08283       -0.51753
N          3.19665        3.74675       -1.12619
N          3.66170        2.58449        0.77845
C         -0.76980        0.49290       -0.86970
C         -0.17130        0.87480        0.49210
C         -2.29663        0.33541       -0.80828
C          1.34470        1.03260        0.43730
C         -2.99490        1.62787       -0.42705
C          2.79069        2.74523       -0.27610
H         -0.32590       -0.44586       -1.22172
H         -0.51159        1.26182       -1.60903
H         -0.59460        1.82110        0.84740
H         -0.41860        0.10880        1.23690
H         -2.57585       -0.43785       -0.08462
H          1.71920        1.28008        1.43806
H          1.77971        0.07387        0.12998
H         -3.81031       -0.22392       -2.06261
H         -2.37299       -0.89210       -2.43923
H         -4.60859        2.24142        0.47972
H          2.65685        3.98395       -1.95139
H          4.04446        4.27630       -0.95543
H          4.48909        3.16478        0.86579
H          3.51294        1.89056        1.50237
