#p m062X def2TZVP opt freq
 
6322 arginine
 
0 1
O         -4.15539        1.40392        0.24438
O         -2.59399        2.75166       -0.70072
N         -2.81204       -0.02701       -2.12621
N          1.85621        1.39565        1.75985
N          3.78756        0.27452        1.13940
N          3.75762        1.21266        3.21636
C         -0.76980        0.49290       -0.86970
C         -0.17130        0.87480        0.49210
C         -2.29663        0.33541       -0.80828
C          1.34470        1.03260        0.43730
C         -2.99490        1.62787       -0.42705
C          3.05645        0.99993        2.05030
H         -0.32590       -0.44586       -1.22172
H         -0.51159        1.26182       -1.60903
H         -0.59460        1.82110        0.84740
H         -0.41860        0.10880        1.23690
H         -2.57585       -0.43785       -0.08462
H          1.79439        0.09190        0.09690
H          1.58308        1.81640       -0.29186
H         -3.81031       -0.22392       -2.06261
H         -2.37299       -0.89210       -2.43923
H         -4.60859        2.24142        0.47972
H          3.40463        0.03716        0.23075
H          4.72749       -0.04445        1.34712
H          4.69871        0.85260        3.33318
H          3.36844        1.73264        3.99475
