#p m062X def2TZVP opt freq
 
6322 arginine
 
0 1
O         -0.04962       -3.17956       -0.95426
O         -1.20412       -1.92730        0.54458
N         -0.81215       -1.15207       -2.68963
N          1.70236        2.08283       -0.51753
N          0.74975        3.69813       -1.87964
N         -0.03819        3.54771        0.25374
C         -0.76980        0.49290       -0.86970
C         -0.17130        0.87480        0.49210
C         -0.21110       -0.83782       -1.39583
C          1.34470        1.03260        0.43730
C         -0.54597       -2.00447       -0.48469
C          0.84791        3.04573       -0.67331
H         -0.56446        1.28299       -1.60171
H         -1.86124        0.42057       -0.77995
H         -0.59460        1.82110        0.84740
H         -0.41860        0.10880        1.23690
H          0.87726       -0.78281       -1.50549
H          1.71920        1.28008        1.43806
H          1.77971        0.07387        0.12998
H         -0.37119       -1.98402       -3.08048
H         -0.62275       -0.39667       -3.34738
H         -0.27711       -3.93236       -0.36798
H          1.33928        3.44057       -2.66368
H          0.08843        4.45363       -2.02185
H         -0.66489        4.30975        0.01820
H         -0.10150        3.18003        1.19636
