#p m062X def2TZVP opt freq
 
6322 arginine
 
0 1
O         -1.00587        3.11138       -0.21929
O         -1.40163        3.76708       -2.35495
N          0.96339        1.70035       -2.11789
N          1.96196       -0.22596        0.01585
N          3.62837        1.09200       -0.91048
N          3.84772       -1.16515       -1.13832
C         -0.76980        0.49290       -0.86970
C         -0.17130        0.87480        0.49210
C         -0.47944        1.54863       -1.94715
C          1.34470        1.03260        0.43730
C         -1.00203        2.92137       -1.56525
C          3.07771       -0.13829       -0.63909
H         -1.85465        0.36361       -0.77685
H         -0.36184       -0.47505       -1.18776
H         -0.59460        1.82110        0.84740
H         -0.41860        0.10880        1.23690
H         -0.92902        1.25830       -2.90275
H          1.59965        1.83815       -0.26207
H          1.69782        1.31438        1.43668
H          1.15297        2.32945       -2.89740
H          1.37396        0.80288       -2.37306
H         -1.35398        3.99566        0.02368
H          3.17559        1.94696       -0.60610
H          4.49974        1.18215       -1.42131
H          4.70934       -0.97623       -1.63918
H          3.58998       -2.13912       -1.02558
