#p m062X def2TZVP opt freq
 
6322 arginine
 
0 1
O         -3.22259        0.96649       -2.91758
O         -3.06956       -1.25538       -2.48465
N         -2.64995       -0.71204        0.14667
N          1.85621        1.39565        1.75985
N          3.77825        1.29886        3.05152
N          4.01478        1.99842        0.89526
C         -0.76980        0.49290       -0.86970
C         -0.17130        0.87480        0.49210
C         -2.29663        0.33541       -0.80828
C          1.34470        1.03260        0.43730
C         -2.88600       -0.09554       -2.13881
C          3.13777        1.56382        1.86406
H         -0.32590       -0.44586       -1.22172
H         -0.51159        1.26182       -1.60903
H         -0.59460        1.82110        0.84740
H         -0.41860        0.10880        1.23690
H         -2.76958        1.27596       -0.50617
H          1.79439        0.09190        0.09690
H          1.58308        1.81640       -0.29186
H         -3.66280       -0.74949        0.25661
H         -2.27470       -0.47834        1.06521
H         -3.61259        0.68372       -3.77204
H          3.26429        0.96982        3.86158
H          4.77936        1.42410        3.15372
H          5.00540        2.09309        1.09184
H          3.71116        2.23635       -0.04225
