#p m062X def2TZVP opt freq
 
6322 arginine
 
0 1
O         -1.80211       -1.68598        0.36399
O         -3.79156       -0.69408        0.81763
N         -2.90908        1.59251       -0.38572
N          1.85621        1.39565        1.75985
N          1.53923       -0.79115        2.45945
N          3.15614        0.41176        3.52406
C         -0.76980        0.49290       -0.86970
C         -0.17130        0.87480        0.49210
C         -2.29663        0.33541       -0.80828
C          1.34470        1.03260        0.43730
C         -2.72880       -0.70349        0.21020
C          2.18629        0.41892        2.54634
H         -0.32590       -0.44586       -1.22172
H         -0.51159        1.26182       -1.60903
H         -0.59460        1.82110        0.84740
H         -0.41860        0.10880        1.23690
H         -2.69463        0.04949       -1.78778
H          1.79439        0.09190        0.09690
H          1.58308        1.81640       -0.29186
H         -3.92427        1.51471       -0.43751
H         -2.64931        2.33468       -1.03444
H         -2.08986       -2.36068        1.01526
H          0.79752       -0.94098        1.78415
H          1.78211       -1.56727        3.06525
H          3.32816       -0.41688        4.08325
H          3.73190        1.22254        3.72123
