#p m062X def2TZVP opt freq
 
6322 arginine
 
0 1
O         -1.66876       -1.26846        0.84646
O         -3.88709       -1.03000        0.43445
N         -2.90908        1.59251       -0.38572
N          1.70236        2.08283       -0.51753
N          3.31657        2.63644       -2.08593
N          2.51117        0.50492       -2.13812
C         -0.76980        0.49290       -0.86970
C         -0.17130        0.87480        0.49210
C         -2.29663        0.33541       -0.80828
C          1.34470        1.03260        0.43730
C         -2.72880       -0.70349        0.21020
C          2.45030        1.73270       -1.51729
H         -0.32590       -0.44586       -1.22172
H         -0.51159        1.26182       -1.60903
H         -0.59460        1.82110        0.84740
H         -0.41860        0.10880        1.23690
H         -2.69463        0.04949       -1.78778
H          1.71920        1.28008        1.43806
H          1.77971        0.07387        0.12998
H         -3.92427        1.51471       -0.43751
H         -2.64931        2.33468       -1.03444
H         -1.95190       -1.94654        1.49624
H          3.38591        3.58617       -1.73691
H          3.90967        2.38267       -2.86835
H          3.13939        0.34450       -2.91821
H          1.94006       -0.27929       -1.84384
