#p m062X def2TZVP opt freq
 
6322 arginine
 
0 1
O         -0.74281        3.85201       -2.52149
O         -1.57175        3.19063       -0.51575
N          0.96339        1.70035       -2.11789
N          1.96196       -0.22596        0.01585
N          3.32341        0.95573       -1.44089
N          2.87119       -1.21301       -1.97646
C         -0.76980        0.49290       -0.86970
C         -0.17130        0.87480        0.49210
C         -0.47944        1.54863       -1.94715
C          1.34470        1.03260        0.43730
C         -1.00203        2.92137       -1.56525
C          2.66703       -0.19474       -1.07201
H         -1.85465        0.36361       -0.77685
H         -0.36184       -0.47505       -1.18776
H         -0.59460        1.82110        0.84740
H         -0.41860        0.10880        1.23690
H         -0.92902        1.25830       -2.90275
H          1.59965        1.83815       -0.26207
H          1.69782        1.31438        1.43668
H          1.15297        2.32945       -2.89740
H          1.37396        0.80288       -2.37306
H         -1.07295        4.73970       -2.26617
H          3.26854        1.79467       -0.87363
H          3.87956        1.00090       -2.28766
H          3.44700       -1.07291       -2.79972
H          2.46188       -2.13281       -1.85743
