#p m062X def2TZVP opt freq
 
6322 arginine
 
0 1
O          1.32132        2.97413       -2.60293
O          1.84084        0.82163       -2.10854
N         -1.06947        1.13639       -3.21831
N          1.85621        1.39565        1.75985
N          2.65540       -0.76431        2.02039
N          3.72972        0.88254        3.17298
C         -0.76980        0.49290       -0.86970
C         -0.17130        0.87480        0.49210
C         -0.47944        1.54863       -1.94715
C          1.34470        1.03260        0.43730
C          1.00654        1.71177       -2.20918
C          2.70819        0.58087        2.30003
H         -1.85465        0.36361       -0.77685
H         -0.36184       -0.47505       -1.18776
H         -0.59460        1.82110        0.84740
H         -0.41860        0.10880        1.23690
H         -0.89038        2.52096       -1.65513
H          1.79439        0.09190        0.09690
H          1.58308        1.81640       -0.29186
H         -0.95832        1.88056       -3.90621
H         -2.07390        1.00617       -3.10303
H          2.28086        3.07248       -2.78120
H          1.95456       -1.14128        1.39163
H          3.31207       -1.41797        2.43254
H          4.33925        0.15688        3.53469
H          3.91370        1.82964        3.48426
