#p m062X def2TZVP opt freq
 
6322 arginine
 
0 1
O         -3.71744        1.50104        0.71731
O         -2.94876        2.66880       -1.06960
N         -2.81204       -0.02701       -2.12621
N          1.85621        1.39565        1.75985
N          2.65808        3.31688        0.74108
N          3.05901        3.08460        2.97269
C         -0.76980        0.49290       -0.86970
C         -0.17130        0.87480        0.49210
C         -2.29663        0.33541       -0.80828
C          1.34470        1.03260        0.43730
C         -2.99490        1.62787       -0.42705
C          2.48977        2.52338        1.85127
H         -0.32590       -0.44586       -1.22172
H         -0.51159        1.26182       -1.60903
H         -0.59460        1.82110        0.84740
H         -0.41860        0.10880        1.23690
H         -2.57585       -0.43785       -0.08462
H          1.79439        0.09190        0.09690
H          1.58308        1.81640       -0.29186
H         -3.81031       -0.22392       -2.06261
H         -2.37299       -0.89210       -2.43923
H         -4.17537        2.33545        0.95443
H          2.29294        3.03700       -0.16277
H          3.15051        4.20195        0.79136
H          3.53390        3.97968        2.92527
H          3.02556        2.63365        3.88003
