#p m062X def2TZVP opt freq
 
6322 arginine
 
0 1
O         -2.93095       -0.16134        1.44020
O         -2.86360       -1.89871       -0.01739
N         -2.90908        1.59251       -0.38572
N          1.96196       -0.22596        0.01585
N          2.35574        0.69203       -2.07562
N          3.75756       -0.97125       -1.39505
C         -0.76980        0.49290       -0.86970
C         -0.17130        0.87480        0.49210
C         -2.29663        0.33541       -0.80828
C          1.34470        1.03260        0.43730
C         -2.72880       -0.70349        0.21020
C          2.66703       -0.19474       -1.07201
H         -0.32590       -0.44586       -1.22172
H         -0.51159        1.26182       -1.60903
H         -0.59460        1.82110        0.84740
H         -0.41860        0.10880        1.23690
H         -2.69463        0.04949       -1.78778
H          1.59965        1.83815       -0.26207
H          1.69782        1.31438        1.43668
H         -3.92427        1.51471       -0.43751
H         -2.64931        2.33468       -1.03444
H         -3.19999       -0.83773        2.09768
H          1.57498        1.33291       -1.98452
H          2.89428        0.73215       -2.93395
H          4.23463       -0.85840       -2.28309
H          4.12501       -1.67663       -0.76643
