#p m062X def2TZVP opt freq
 
6322 arginine
 
0 1
O         -2.10498        2.84734       -0.77421
O         -0.52012        3.98510       -1.93236
N          0.96339        1.70035       -2.11789
N          1.85621        1.39565        1.75985
N          2.17024        3.56858        1.01704
N          3.50592        2.85401        2.72001
C         -0.76980        0.49290       -0.86970
C         -0.17130        0.87480        0.49210
C         -0.47944        1.54863       -1.94715
C          1.34470        1.03260        0.43730
C         -1.00203        2.92137       -1.56525
C          2.48977        2.52338        1.85127
H         -1.85465        0.36361       -0.77685
H         -0.36184       -0.47505       -1.18776
H         -0.59460        1.82110        0.84740
H         -0.41860        0.10880        1.23690
H         -0.92902        1.25830       -2.90275
H          1.79439        0.09190        0.09690
H          1.58308        1.81640       -0.29186
H          1.15297        2.32945       -2.89740
H          1.37396        0.80288       -2.37306
H         -2.44552        3.73646       -0.53830
H          1.43908        3.47756        0.32009
H          2.65373        4.45827        1.07223
H          3.93094        3.77484        2.70061
H          3.86484        2.20050        3.40691
