#p m062X def2TZVP opt freq
 
6322 arginine
 
0 1
O         -1.80460        0.03118       -3.23016
O         -1.01581        1.86834       -4.30265
N         -1.05055        2.83332       -1.55050
N          1.96196       -0.22596        0.01585
N          2.10687       -1.65682       -1.80174
N          2.35322        0.57078       -2.21628
C         -0.76980        0.49290       -0.86970
C         -0.17130        0.87480        0.49210
C         -0.47944        1.54863       -1.94715
C          1.34470        1.03260        0.43730
C         -1.11575        1.20192       -3.28068
C          2.13337       -0.39403       -1.25848
H         -1.85465        0.36361       -0.77685
H         -0.36184       -0.47505       -1.18776
H         -0.59460        1.82110        0.84740
H         -0.41860        0.10880        1.23690
H          0.59983        1.66193       -2.09524
H          1.59965        1.83815       -0.26207
H          1.69782        1.31438        1.43668
H         -0.77576        3.55259       -2.21869
H         -0.66095        3.11834       -0.65267
H         -2.20546       -0.19434       -4.09654
H          1.95422       -2.47379       -1.22046
H          2.23897       -1.80965       -2.79550
H          2.47459        0.32047       -3.19175
H          2.40002        1.55777       -1.98955
