#p m062X def2TZVP opt freq
 
6322 arginine
 
0 1
O         -3.54153       -1.28285       -2.04775
O         -2.77774        0.52267       -3.18982
N         -2.64995       -0.71204        0.14667
N          1.70236        2.08283       -0.51753
N          3.65384        0.87978       -0.85873
N          3.40001        2.80154       -2.05756
C         -0.76980        0.49290       -0.86970
C         -0.17130        0.87480        0.49210
C         -2.29663        0.33541       -0.80828
C          1.34470        1.03260        0.43730
C         -2.88600       -0.09554       -2.13881
C          2.84206        1.95752       -1.12327
H         -0.32590       -0.44586       -1.22172
H         -0.51159        1.26182       -1.60903
H         -0.59460        1.82110        0.84740
H         -0.41860        0.10880        1.23690
H         -2.76958        1.27596       -0.50617
H          1.71920        1.28008        1.43806
H          1.77971        0.07387        0.12998
H         -3.66280       -0.74949        0.25661
H         -2.27470       -0.47834        1.06521
H         -3.91188       -1.56272       -2.91185
H          3.37861        0.16861       -0.19008
H          4.54870        0.76350       -1.32141
H          4.30590        2.60120       -2.46764
H          2.93391        3.64531       -2.37148
