#p m062X def2TZVP opt freq
 
6322 arginine
 
0 1
O         -0.04962       -3.17956       -0.95426
O         -1.20412       -1.92730        0.54458
N         -0.81215       -1.15207       -2.68963
N          1.96196       -0.22596        0.01585
N          2.80789        0.97888       -1.77435
N          3.34342       -1.23411       -1.67100
C         -0.76980        0.49290       -0.86970
C         -0.17130        0.87480        0.49210
C         -0.21110       -0.83782       -1.39583
C          1.34470        1.03260        0.43730
C         -0.54597       -2.00447       -0.48469
C          2.66703       -0.19474       -1.07201
H         -0.56446        1.28299       -1.60171
H         -1.86124        0.42057       -0.77995
H         -0.59460        1.82110        0.84740
H         -0.41860        0.10880        1.23690
H          0.87726       -0.78281       -1.50549
H          1.59965        1.83815       -0.26207
H          1.69782        1.31438        1.43668
H         -0.37119       -1.98402       -3.08048
H         -0.62275       -0.39667       -3.34738
H         -0.27711       -3.93236       -0.36798
H          2.36628        1.83506       -1.45725
H          3.35463        1.02434       -2.62721
H          3.86659       -1.09181       -2.52832
H          3.34824       -2.17112       -1.28406
