#p m062X def2TZVP opt freq
 
6322 arginine
 
0 1
O         -3.42860       -1.71955       -0.36041
O         -2.50709       -0.64505        1.41268
N         -2.90908        1.59251       -0.38572
N          1.70236        2.08283       -0.51753
N          2.34722        2.38523       -2.72314
N          3.39911        0.73522       -1.55448
C         -0.76980        0.49290       -0.86970
C         -0.17130        0.87480        0.49210
C         -2.29663        0.33541       -0.80828
C          1.34470        1.03260        0.43730
C         -2.72880       -0.70349        0.21020
C          2.45030        1.73270       -1.51729
H         -0.32590       -0.44586       -1.22172
H         -0.51159        1.26182       -1.60903
H         -0.59460        1.82110        0.84740
H         -0.41860        0.10880        1.23690
H         -2.69463        0.04949       -1.78778
H          1.71920        1.28008        1.43806
H          1.77971        0.07387        0.12998
H         -3.92427        1.51471       -0.43751
H         -2.64931        2.33468       -1.03444
H         -3.71486       -2.38330        0.30266
H          1.68935        3.14628       -2.85209
H          2.92264        2.12665       -3.51711
H          3.92837        0.54885       -2.39952
H          3.60661        0.15531       -0.74926
