#p m062X def2TZVP opt freq
 
6322 arginine
 
0 1
O         -1.22096       -0.14086       -3.46392
O         -1.47824        2.01566       -4.12029
N         -1.05055        2.83332       -1.55050
N          1.96196       -0.22596        0.01585
N          1.43654       -2.43157       -0.46499
N          0.53680       -1.54331        1.43138
C         -0.76980        0.49290       -0.86970
C         -0.17130        0.87480        0.49210
C         -0.47944        1.54863       -1.94715
C          1.34470        1.03260        0.43730
C         -1.11575        1.20192       -3.28068
C          1.33850       -1.31737        0.33466
H         -1.85465        0.36361       -0.77685
H         -0.36184       -0.47505       -1.18776
H         -0.59460        1.82110        0.84740
H         -0.41860        0.10880        1.23690
H          0.59983        1.66193       -2.09524
H          1.59965        1.83815       -0.26207
H          1.69782        1.31438        1.43668
H         -0.77576        3.55259       -2.21869
H         -0.66095        3.11834       -0.65267
H         -1.62309       -0.36067       -4.33118
H          1.99367       -2.42050       -1.31240
H          0.95677       -3.29449       -0.23356
H          0.09641       -2.44497        1.57974
H          0.35779       -0.82835        2.12747
