#p m062X def2TZVP opt freq
 
6322 arginine
 
0 1
O         -1.27782       -2.95709       -1.12079
O         -0.22737       -2.09088        0.69410
N         -0.81215       -1.15207       -2.68963
N          1.85621        1.39565        1.75985
N          2.17024        3.56858        1.01704
N          3.50592        2.85401        2.72001
C         -0.76980        0.49290       -0.86970
C         -0.17130        0.87480        0.49210
C         -0.21110       -0.83782       -1.39583
C          1.34470        1.03260        0.43730
C         -0.54597       -2.00447       -0.48469
C          2.48977        2.52338        1.85127
H         -0.56446        1.28299       -1.60171
H         -1.86124        0.42057       -0.77995
H         -0.59460        1.82110        0.84740
H         -0.41860        0.10880        1.23690
H          0.87726       -0.78281       -1.50549
H          1.79439        0.09190        0.09690
H          1.58308        1.81640       -0.29186
H         -0.37119       -1.98402       -3.08048
H         -0.62275       -0.39667       -3.34738
H         -1.50086       -3.70422       -0.52563
H          1.43908        3.47756        0.32009
H          2.65373        4.45827        1.07223
H          3.93094        3.77484        2.70061
H          3.86484        2.20050        3.40691
