#p m062X def2TZVP opt freq
 
6322 arginine
 
0 1
O         -1.80460        0.03118       -3.23016
O         -1.01581        1.86834       -4.30265
N         -1.05055        2.83332       -1.55050
N          1.70236        2.08283       -0.51753
N          3.89131        1.32104       -0.50322
N          3.18252        2.39727       -2.38315
C         -0.76980        0.49290       -0.86970
C         -0.17130        0.87480        0.49210
C         -0.47944        1.54863       -1.94715
C          1.34470        1.03260        0.43730
C         -1.11575        1.20192       -3.28068
C          2.84206        1.95752       -1.12327
H         -1.85465        0.36361       -0.77685
H         -0.36184       -0.47505       -1.18776
H         -0.59460        1.82110        0.84740
H         -0.41860        0.10880        1.23690
H          0.59983        1.66193       -2.09524
H          1.71920        1.28008        1.43806
H          1.77971        0.07387        0.12998
H         -0.77576        3.55259       -2.21869
H         -0.66095        3.11834       -0.65267
H         -2.20546       -0.19434       -4.09654
H          3.79419        0.94098        0.43205
H          4.79046        1.21289       -0.95949
H          4.11260        2.24210       -2.75705
H          2.52605        2.88563       -2.98172
