#p m062X def2TZVP opt freq
 
6322 arginine
 
0 1
O         -3.22259        0.96649       -2.91758
O         -3.06956       -1.25538       -2.48465
N         -2.64995       -0.71204        0.14667
N          1.96196       -0.22596        0.01585
N          3.94066        0.90770       -0.39839
N          4.10492       -1.30673        0.11550
C         -0.76980        0.49290       -0.86970
C         -0.17130        0.87480        0.49210
C         -2.29663        0.33541       -0.80828
C          1.34470        1.03260        0.43730
C         -2.88600       -0.09554       -2.13881
C          3.25539       -0.23981       -0.07571
H         -0.32590       -0.44586       -1.22172
H         -0.51159        1.26182       -1.60903
H         -0.59460        1.82110        0.84740
H         -0.41860        0.10880        1.23690
H         -2.76958        1.27596       -0.50617
H          1.59965        1.83815       -0.26207
H          1.69782        1.31438        1.43668
H         -3.66280       -0.74949        0.25661
H         -2.27470       -0.47834        1.06521
H         -3.61259        0.68372       -3.77204
H          3.45111        1.77926       -0.56966
H          4.95177        0.91789       -0.47521
H          5.10871       -1.19964        0.01613
H          3.76706       -2.23015        0.36226
