#p m062X def2TZVP opt freq
 
6322 arginine
 
0 1
O         -0.66447       -3.17203       -1.17059
O         -0.71799       -1.92611        0.72477
N         -0.81215       -1.15207       -2.68963
N          1.96196       -0.22596        0.01585
N          3.80022       -1.63385        0.11905
N          3.91882        0.31110        1.30135
C         -0.76980        0.49290       -0.86970
C         -0.17130        0.87480        0.49210
C         -0.21110       -0.83782       -1.39583
C          1.34470        1.03260        0.43730
C         -0.54597       -2.00447       -0.48469
C          3.15245       -0.47209        0.46717
H         -0.56446        1.28299       -1.60171
H         -1.86124        0.42057       -0.77995
H         -0.59460        1.82110        0.84740
H         -0.41860        0.10880        1.23690
H          0.87726       -0.78281       -1.50549
H          1.59965        1.83815       -0.26207
H          1.69782        1.31438        1.43668
H         -0.37119       -1.98402       -3.08048
H         -0.62275       -0.39667       -3.34738
H         -0.89110       -3.92138       -0.57958
H          3.36233       -2.31454       -0.49213
H          4.73109       -1.84520        0.46134
H          4.84435        0.01462        1.59192
H          3.59505        1.20512        1.65299
