#p m062X def2TZVP opt freq
 
6322 arginine
 
0 1
O         -3.31183        2.37863       -1.51500
O         -3.23479        1.98686        0.71843
N         -2.81204       -0.02701       -2.12621
N          1.85621        1.39565        1.75985
N          3.20089        3.00506        0.77311
N          3.90921        2.14112        2.75973
C         -0.76980        0.49290       -0.86970
C         -0.17130        0.87480        0.49210
C         -2.29663        0.33541       -0.80828
C          1.34470        1.03260        0.43730
C         -2.99490        1.62787       -0.42705
C          2.93035        2.12145        1.79121
H         -0.32590       -0.44586       -1.22172
H         -0.51159        1.26182       -1.60903
H         -0.59460        1.82110        0.84740
H         -0.41860        0.10880        1.23690
H         -2.57585       -0.43785       -0.08462
H          1.79439        0.09190        0.09690
H          1.58308        1.81640       -0.29186
H         -3.81031       -0.22392       -2.06261
H         -2.37299       -0.89210       -2.43923
H         -3.75351        3.21762       -1.26363
H          2.57050        3.10461       -0.01512
H          4.03526        3.58138        0.77862
H          4.71252        2.75512        2.67825
H          3.86696        1.55244        3.58399
