#p m062X def2TZVP opt freq
 
6322 arginine
 
0 1
O         -1.61377        2.91670       -0.35138
O         -0.91701        3.92530       -2.26053
N          0.96339        1.70035       -2.11789
N          1.85621        1.39565        1.75985
N          2.08254        0.56050        3.91004
N          2.65812       -0.82640        2.19540
C         -0.76980        0.49290       -0.86970
C         -0.17130        0.87480        0.49210
C         -0.47944        1.54863       -1.94715
C          1.34470        1.03260        0.43730
C         -1.00203        2.92137       -1.56525
C          2.18629        0.41892        2.54634
H         -1.85465        0.36361       -0.77685
H         -0.36184       -0.47505       -1.18776
H         -0.59460        1.82110        0.84740
H         -0.41860        0.10880        1.23690
H         -0.92902        1.25830       -2.90275
H          1.79439        0.09190        0.09690
H          1.58308        1.81640       -0.29186
H          1.15297        2.32945       -2.89740
H          1.37396        0.80288       -2.37306
H         -1.95911        3.80333       -0.11308
H          1.74881        1.42470        4.32284
H          2.33572       -0.19095        4.54217
H          2.88615       -1.51702        2.90249
H          2.79316       -1.10146        1.22904
