#p m062X def2TZVP opt freq
 
6322 arginine
 
0 1
O         -2.32050       -0.38821        1.46782
O         -3.35133       -1.72549       -0.04766
N         -2.90908        1.59251       -0.38572
N          1.85621        1.39565        1.75985
N          0.49583       -0.22491        2.70598
N          1.06524        1.54593        4.02305
C         -0.76980        0.49290       -0.86970
C         -0.17130        0.87480        0.49210
C         -2.29663        0.33541       -0.80828
C          1.34470        1.03260        0.43730
C         -2.72880       -0.70349        0.21020
C          1.19003        0.95941        2.78329
H         -0.32590       -0.44586       -1.22172
H         -0.51159        1.26182       -1.60903
H         -0.59460        1.82110        0.84740
H         -0.41860        0.10880        1.23690
H         -2.69463        0.04949       -1.78778
H          1.79439        0.09190        0.09690
H          1.58308        1.81640       -0.29186
H         -3.92427        1.51471       -0.43751
H         -2.64931        2.33468       -1.03444
H         -2.59284       -1.06727        2.12117
H          0.49176       -0.77477        1.85377
H         -0.03139       -0.58321        3.49466
H          0.51311        1.11020        4.75396
H          1.51563        2.42429        4.25406
