#p m062X def2TZVP opt freq
 
6322 arginine
 
0 1
O         -3.89060       -1.31431       -0.14308
O         -2.13247       -0.96302        1.24730
N         -2.90908        1.59251       -0.38572
N          1.96196       -0.22596        0.01585
N          4.03401       -1.22333       -0.27376
N          3.70465       -0.06487        1.66125
C         -0.76980        0.49290       -0.86970
C         -0.17130        0.87480        0.49210
C         -2.29663        0.33541       -0.80828
C          1.34470        1.03260        0.43730
C         -2.72880       -0.70349        0.21020
C          3.15245       -0.47209        0.46717
H         -0.32590       -0.44586       -1.22172
H         -0.51159        1.26182       -1.60903
H         -0.59460        1.82110        0.84740
H         -0.41860        0.10880        1.23690
H         -2.69463        0.04949       -1.78778
H          1.59965        1.83815       -0.26207
H          1.69782        1.31438        1.43668
H         -3.92427        1.51471       -0.43751
H         -2.64931        2.33468       -1.03444
H         -4.17169       -1.97745        0.52280
H          3.77153       -1.59613       -1.17971
H          4.96916       -1.42728        0.06128
H          4.65407       -0.31956        1.91160
H          3.19293        0.50038        2.32936
