#p m062X def2TZVP opt freq
 
6322 arginine
 
0 1
O         -4.15152        0.36916       -2.31263
O         -2.31890       -0.79845       -2.96516
N         -2.64995       -0.71204        0.14667
N          1.70236        2.08283       -0.51753
N          2.34722        2.38523       -2.72314
N          3.39911        0.73522       -1.55448
C         -0.76980        0.49290       -0.86970
C         -0.17130        0.87480        0.49210
C         -2.29663        0.33541       -0.80828
C          1.34470        1.03260        0.43730
C         -2.88600       -0.09554       -2.13881
C          2.45030        1.73270       -1.51729
H         -0.32590       -0.44586       -1.22172
H         -0.51159        1.26182       -1.60903
H         -0.59460        1.82110        0.84740
H         -0.41860        0.10880        1.23690
H         -2.76958        1.27596       -0.50617
H          1.71920        1.28008        1.43806
H          1.77971        0.07387        0.12998
H         -3.66280       -0.74949        0.25661
H         -2.27470       -0.47834        1.06521
H         -4.53240        0.07977       -3.16899
H          1.68935        3.14628       -2.85209
H          2.92264        2.12665       -3.51711
H          3.92837        0.54885       -2.39952
H          3.60661        0.15531       -0.74926
