#p m062X def2TZVP opt freq
 
6322 arginine
 
0 1
O         -2.94696       -1.44828       -2.25753
O         -3.24907        0.66459       -3.02701
N         -2.64995       -0.71204        0.14667
N          1.85621        1.39565        1.75985
N          3.67297        1.05386        3.15791
N          2.79734       -0.78301        2.13130
C         -0.76980        0.49290       -0.86970
C         -0.17130        0.87480        0.49210
C         -2.29663        0.33541       -0.80828
C          1.34470        1.03260        0.43730
C         -2.88600       -0.09554       -2.13881
C          2.70819        0.58087        2.30003
H         -0.32590       -0.44586       -1.22172
H         -0.51159        1.26182       -1.60903
H         -0.59460        1.82110        0.84740
H         -0.41860        0.10880        1.23690
H         -2.76958        1.27596       -0.50617
H          1.79439        0.09190        0.09690
H          1.58308        1.81640       -0.29186
H         -3.66280       -0.74949        0.25661
H         -2.27470       -0.47834        1.06521
H         -3.31874       -1.72253       -3.12283
H          3.73582        2.04097        3.38217
H          4.34852        0.43345        3.59044
H          3.51117       -1.32294        2.60864
H          2.16061       -1.29712        1.53296
