#p m062X def2TZVP opt freq
 
6322 arginine
 
0 1
O         -2.22281       -1.93413       -0.06765
O         -3.46497       -0.48977        1.16462
N         -2.90908        1.59251       -0.38572
N          1.70236        2.08283       -0.51753
N          2.82899        2.66020       -2.45901
N          2.95782        0.48325       -1.79638
C         -0.76980        0.49290       -0.86970
C         -0.17130        0.87480        0.49210
C         -2.29663        0.33541       -0.80828
C          1.34470        1.03260        0.43730
C         -2.72880       -0.70349        0.21020
C          2.45030        1.73270       -1.51729
H         -0.32590       -0.44586       -1.22172
H         -0.51159        1.26182       -1.60903
H         -0.59460        1.82110        0.84740
H         -0.41860        0.10880        1.23690
H         -2.69463        0.04949       -1.78778
H          1.71920        1.28008        1.43806
H          1.77971        0.07387        0.12998
H         -3.92427        1.51471       -0.43751
H         -2.64931        2.33468       -1.03444
H         -2.51291       -2.60456        0.58698
H          2.53253        3.62764       -2.38986
H          3.41318        2.40675       -3.24822
H          3.53622        0.32510       -2.61453
H          2.77863       -0.31871       -1.20268
