#p m062X def2TZVP opt freq
 
6322 arginine
 
0 1
O         -1.00587        3.11138       -0.21929
O         -1.40163        3.76708       -2.35495
N          0.96339        1.70035       -2.11789
N          1.85621        1.39565        1.75985
N          3.48749        2.68536        2.78337
N          2.29956        3.66293        1.10172
C         -0.76980        0.49290       -0.86970
C         -0.17130        0.87480        0.49210
C         -0.47944        1.54863       -1.94715
C          1.34470        1.03260        0.43730
C         -1.00203        2.92137       -1.56525
C          2.48977        2.52338        1.85127
H         -1.85465        0.36361       -0.77685
H         -0.36184       -0.47505       -1.18776
H         -0.59460        1.82110        0.84740
H         -0.41860        0.10880        1.23690
H         -0.92902        1.25830       -2.90275
H          1.79439        0.09190        0.09690
H          1.58308        1.81640       -0.29186
H          1.15297        2.32945       -2.89740
H          1.37396        0.80288       -2.37306
H         -1.35398        3.99566        0.02368
H          3.74422        1.93190        3.41186
H          3.99469        3.55909        2.87113
H          2.85863        4.49379        1.26311
H          1.60396        3.71715        0.36623
