#p m062X def2TZVP opt freq
 
6322 arginine
 
0 1
O         -0.00870        3.84685       -1.49839
O         -2.17148        3.18549       -1.31792
N          0.96339        1.70035       -2.11789
N          1.85621        1.39565        1.75985
N          3.80962        2.01476        2.84287
N          3.35180        3.04797        0.86357
C         -0.76980        0.49290       -0.86970
C         -0.17130        0.87480        0.49210
C         -0.47944        1.54863       -1.94715
C          1.34470        1.03260        0.43730
C         -1.00203        2.92137       -1.56525
C          2.93035        2.12145        1.79121
H         -1.85465        0.36361       -0.77685
H         -0.36184       -0.47505       -1.18776
H         -0.59460        1.82110        0.84740
H         -0.41860        0.10880        1.23690
H         -0.92902        1.25830       -2.90275
H          1.79439        0.09190        0.09690
H          1.58308        1.81640       -0.29186
H          1.15297        2.32945       -2.89740
H          1.37396        0.80288       -2.37306
H         -0.34918        4.73008       -1.24121
H          3.63566        1.37171        3.60763
H          4.65486        2.57335        2.88639
H          4.21693        3.56133        0.99375
H          2.82324        3.25095        0.02264
