#p m062X def2TZVP opt freq
 
6322 arginine
 
0 1
O         -3.78023        0.80840       -2.61936
O         -2.62228       -1.14008       -2.72012
N         -2.64995       -0.71204        0.14667
N          1.96196       -0.22596        0.01585
N          3.17972       -1.15515       -1.72360
N          1.37054        0.11105       -2.28783
C         -0.76980        0.49290       -0.86970
C         -0.17130        0.87480        0.49210
C         -2.29663        0.33541       -0.80828
C          1.34470        1.03260        0.43730
C         -2.88600       -0.09554       -2.13881
C          2.13337       -0.39403       -1.25848
H         -0.32590       -0.44586       -1.22172
H         -0.51159        1.26182       -1.60903
H         -0.59460        1.82110        0.84740
H         -0.41860        0.10880        1.23690
H         -2.76958        1.27596       -0.50617
H          1.59965        1.83815       -0.26207
H          1.69782        1.31438        1.43668
H         -3.66280       -0.74949        0.25661
H         -2.27470       -0.47834        1.06521
H         -4.16637        0.52115       -3.47408
H          3.83184       -1.59554       -1.08374
H          3.33130       -1.29861       -2.71597
H          1.60132       -0.08774       -3.25538
H          0.55664        0.69266       -2.12340
