#p m062X def2TZVP opt freq
 
6322 arginine
 
0 1
O         -2.11534        2.64394       -0.22294
O         -4.20403        1.76048       -0.28937
N         -2.81204       -0.02701       -2.12621
N          1.96196       -0.22596        0.01585
N          1.74224        0.58065       -2.14589
N          2.68762       -1.47873       -1.90098
C         -0.76980        0.49290       -0.86970
C         -0.17130        0.87480        0.49210
C         -2.29663        0.33541       -0.80828
C          1.34470        1.03260        0.43730
C         -2.99490        1.62787       -0.42705
C          2.13337       -0.39403       -1.25848
H         -0.32590       -0.44586       -1.22172
H         -0.51159        1.26182       -1.60903
H         -0.59460        1.82110        0.84740
H         -0.41860        0.10880        1.23690
H         -2.57585       -0.43785       -0.08462
H          1.59965        1.83815       -0.26207
H          1.69782        1.31438        1.43668
H         -3.81031       -0.22392       -2.06261
H         -2.37299       -0.89210       -2.43923
H         -2.56992        3.47452        0.03331
H          1.31559        1.44217       -1.82285
H          1.86723        0.46857       -3.14598
H          2.77114       -1.50070       -2.91167
H          3.03236       -2.28814       -1.39724
