#p m062X def2TZVP opt freq
 
6322 arginine
 
0 1
O         -2.46833        1.10060       -3.19149
O         -0.50403        1.00762       -4.32307
N         -1.05055        2.83332       -1.55050
N          1.96196       -0.22596        0.01585
N          0.57308       -1.37147        1.47558
N          1.32742       -2.51427       -0.34645
C         -0.76980        0.49290       -0.86970
C         -0.17130        0.87480        0.49210
C         -0.47944        1.54863       -1.94715
C          1.34470        1.03260        0.43730
C         -1.11575        1.20192       -3.28068
C          1.33850       -1.31737        0.33466
H         -1.85465        0.36361       -0.77685
H         -0.36184       -0.47505       -1.18776
H         -0.59460        1.82110        0.84740
H         -0.41860        0.10880        1.23690
H          0.59983        1.66193       -2.09524
H          1.59965        1.83815       -0.26207
H          1.69782        1.31438        1.43668
H         -0.77576        3.55259       -2.21869
H         -0.66095        3.11834       -0.65267
H         -2.87458        0.86625       -4.05301
H          0.48282       -0.56526        2.08425
H          0.07795       -2.21519        1.74267
H          0.79940       -3.30788        0.00040
H          1.83774       -2.64923       -1.21195
