#p m062X def2TZVP opt freq
 
6322 arginine
 
0 1
O         -2.15585        0.35644       -3.19251
O         -3.90997       -0.75233       -2.27532
N         -2.64995       -0.71204        0.14667
N          1.85621        1.39565        1.75985
N          3.99822        0.85956        1.05528
N          3.81325        2.40117        2.72380
C         -0.76980        0.49290       -0.86970
C         -0.17130        0.87480        0.49210
C         -2.29663        0.33541       -0.80828
C          1.34470        1.03260        0.43730
C         -2.88600       -0.09554       -2.13881
C          3.13777        1.56382        1.86406
H         -0.32590       -0.44586       -1.22172
H         -0.51159        1.26182       -1.60903
H         -0.59460        1.82110        0.84740
H         -0.41860        0.10880        1.23690
H         -2.76958        1.27596       -0.50617
H          1.79439        0.09190        0.09690
H          1.58308        1.81640       -0.29186
H         -3.66280       -0.74949        0.25661
H         -2.27470       -0.47834        1.06521
H         -2.54586        0.08454       -4.05049
H          3.64932        0.20055        0.36782
H          5.00339        0.97637        1.12114
H          4.82639        2.45044        2.71668
H          3.33243        2.99646        3.38877
