#p m062X def2TZVP opt freq
 
6322 arginine
 
0 1
O         -2.94696       -1.44828       -2.25753
O         -3.24907        0.66459       -3.02701
N         -2.64995       -0.71204        0.14667
N          1.70236        2.08283       -0.51753
N          2.38468        0.45418       -2.01885
N          3.36451        2.50404       -2.19982
C         -0.76980        0.49290       -0.86970
C         -0.17130        0.87480        0.49210
C         -2.29663        0.33541       -0.80828
C          1.34470        1.03260        0.43730
C         -2.88600       -0.09554       -2.13881
C          2.45030        1.73270       -1.51729
H         -0.32590       -0.44586       -1.22172
H         -0.51159        1.26182       -1.60903
H         -0.59460        1.82110        0.84740
H         -0.41860        0.10880        1.23690
H         -2.76958        1.27596       -0.50617
H          1.71920        1.28008        1.43806
H          1.77971        0.07387        0.12998
H         -3.66280       -0.74949        0.25661
H         -2.27470       -0.47834        1.06521
H         -3.31874       -1.72253       -3.12283
H          1.75525       -0.23337       -1.61921
H          2.96112        0.16045       -2.79974
H          3.89806        2.12062       -2.97264
H          3.53815        3.47431       -1.96282
