#p m062X def2TZVP opt freq
 
6322 arginine
 
0 1
O         -2.81815       -1.94642       -0.33280
O         -2.99482       -0.47183        1.38242
N         -2.90908        1.59251       -0.38572
N          1.85621        1.39565        1.75985
N          2.89818        3.13100        2.88896
N          1.14001        3.67853        1.54591
C         -0.76980        0.49290       -0.86970
C         -0.17130        0.87480        0.49210
C         -2.29663        0.33541       -0.80828
C          1.34470        1.03260        0.43730
C         -2.72880       -0.70349        0.21020
C          1.93408        2.66194        2.02816
H         -0.32590       -0.44586       -1.22172
H         -0.51159        1.26182       -1.60903
H         -0.59460        1.82110        0.84740
H         -0.41860        0.10880        1.23690
H         -2.69463        0.04949       -1.78778
H          1.79439        0.09190        0.09690
H          1.58308        1.81640       -0.29186
H         -3.92427        1.51471       -0.43751
H         -2.64931        2.33468       -1.03444
H         -3.10770       -2.61284        0.32615
H          3.56088        2.50029        3.32674
H          2.97575        4.11720        3.11201
H          1.29446        4.64063        1.82776
H          0.38003        3.51004        0.89645
