#p m062X def2TZVP opt freq
 
6322 arginine
 
0 1
O         -2.37057        1.71143       -3.39695
O         -0.59182        0.52485       -4.15566
N         -1.05055        2.83332       -1.55050
N          1.85621        1.39565        1.75985
N          3.64916        2.44811        2.78439
N          4.13301        0.94572        1.14017
C         -0.76980        0.49290       -0.86970
C         -0.17130        0.87480        0.49210
C         -0.47944        1.54863       -1.94715
C          1.34470        1.03260        0.43730
C         -1.11575        1.20192       -3.28068
C          3.13777        1.56382        1.86406
H         -1.85465        0.36361       -0.77685
H         -0.36184       -0.47505       -1.18776
H         -0.59460        1.82110        0.84740
H         -0.41860        0.10880        1.23690
H          0.59983        1.66193       -2.09524
H          1.79439        0.09190        0.09690
H          1.58308        1.81640       -0.29186
H         -0.77576        3.55259       -2.21869
H         -0.66095        3.11834       -0.65267
H         -2.78203        1.47633       -4.25578
H          3.03838        2.98119        3.39381
H          4.64795        2.59427        2.88148
H          5.11049        1.15767        1.30915
H          3.93279        0.26106        0.41982
