#p m062X def2TZVP opt freq
 
6322 arginine
 
0 1
O         -4.23698       -0.23355       -2.07956
O         -2.24071       -0.32202       -3.15411
N         -2.64995       -0.71204        0.14667
N          1.85621        1.39565        1.75985
N          2.65540       -0.76431        2.02039
N          3.72972        0.88254        3.17298
C         -0.76980        0.49290       -0.86970
C         -0.17130        0.87480        0.49210
C         -2.29663        0.33541       -0.80828
C          1.34470        1.03260        0.43730
C         -2.88600       -0.09554       -2.13881
C          2.70819        0.58087        2.30003
H         -0.32590       -0.44586       -1.22172
H         -0.51159        1.26182       -1.60903
H         -0.59460        1.82110        0.84740
H         -0.41860        0.10880        1.23690
H         -2.76958        1.27596       -0.50617
H          1.79439        0.09190        0.09690
H          1.58308        1.81640       -0.29186
H         -3.66280       -0.74949        0.25661
H         -2.27470       -0.47834        1.06521
H         -4.61259       -0.52216       -2.93850
H          1.95456       -1.14128        1.39163
H          3.31207       -1.41797        2.43254
H          4.33925        0.15688        3.53469
H          3.91370        1.82964        3.48426
