#p m062X def2TZVP opt freq
 
6322 arginine
 
0 1
O         -1.72534       -2.59232       -0.81820
O          0.13627       -2.37747        0.46080
N         -0.81215       -1.15207       -2.68963
N          1.85621        1.39565        1.75985
N          1.49323        1.00614        4.01563
N          1.49857       -0.81080        2.63959
C         -0.76980        0.49290       -0.86970
C         -0.17130        0.87480        0.49210
C         -0.21110       -0.83782       -1.39583
C          1.34470        1.03260        0.43730
C         -0.54597       -2.00447       -0.48469
C          1.63060        0.55747        2.72322
H         -0.56446        1.28299       -1.60171
H         -1.86124        0.42057       -0.77995
H         -0.59460        1.82110        0.84740
H         -0.41860        0.10880        1.23690
H          0.87726       -0.78281       -1.50549
H          1.79439        0.09190        0.09690
H          1.58308        1.81640       -0.29186
H         -0.37119       -1.98402       -3.08048
H         -0.62275       -0.39667       -3.34738
H         -1.94301       -3.33907       -0.22059
H          1.56547        1.99309        4.23772
H          1.31678        0.36716        4.78305
H          1.32198       -1.37018        3.46714
H          1.56924       -1.30857        1.75927
