#p m062X def2TZVP opt freq
 
6322 arginine
 
0 1
O         -1.93257       -0.24823       -3.09556
O         -4.07792       -0.26877       -2.35755
N         -2.64995       -0.71204        0.14667
N          1.85621        1.39565        1.75985
N          2.89818        3.13100        2.88896
N          1.14001        3.67853        1.54591
C         -0.76980        0.49290       -0.86970
C         -0.17130        0.87480        0.49210
C         -2.29663        0.33541       -0.80828
C          1.34470        1.03260        0.43730
C         -2.88600       -0.09554       -2.13881
C          1.93408        2.66194        2.02816
H         -0.32590       -0.44586       -1.22172
H         -0.51159        1.26182       -1.60903
H         -0.59460        1.82110        0.84740
H         -0.41860        0.10880        1.23690
H         -2.76958        1.27596       -0.50617
H          1.79439        0.09190        0.09690
H          1.58308        1.81640       -0.29186
H         -3.66280       -0.74949        0.25661
H         -2.27470       -0.47834        1.06521
H         -2.31874       -0.51665       -3.95637
H          3.56088        2.50029        3.32674
H          2.97575        4.11720        3.11201
H          1.29446        4.64063        1.82776
H          0.38003        3.51004        0.89645
