#p m062X def2TZVP opt freq
 
6322 arginine
 
0 1
O         -1.71978       -1.81823        0.17500
O          0.15300       -2.99686       -0.32613
N         -0.81215       -1.15207       -2.68963
N          1.96196       -0.22596        0.01585
N          3.06885       -0.17432        2.05156
N          3.49991       -1.94599        0.68403
C         -0.76980        0.49290       -0.86970
C         -0.17130        0.87480        0.49210
C         -0.21110       -0.83782       -1.39583
C          1.34470        1.03260        0.43730
C         -0.54597       -2.00447       -0.48469
C          2.79647       -0.77290        0.84408
H         -0.56446        1.28299       -1.60171
H         -1.86124        0.42057       -0.77995
H         -0.59460        1.82110        0.84740
H         -0.41860        0.10880        1.23690
H          0.87726       -0.78281       -1.50549
H          1.59965        1.83815       -0.26207
H          1.69782        1.31438        1.43668
H         -0.37119       -1.98402       -3.08048
H         -0.62275       -0.39667       -3.34738
H         -1.92723       -2.56961        0.77044
H          2.62583        0.69925        2.31466
H          3.71830       -0.58556        2.71296
H          4.13048       -2.27959        1.40516
H          3.41616       -2.51798       -0.14877
