#p m062X def2TZVP opt freq
 
6322 arginine
 
0 1
O         -0.25160        3.92138       -2.09867
O         -1.96865        3.13084       -0.84392
N          0.96339        1.70035       -2.11789
N          1.96196       -0.22596        0.01585
N          3.41366       -1.09390       -1.56885
N          4.04419        0.83731       -0.53557
C         -0.76980        0.49290       -0.86970
C         -0.17130        0.87480        0.49210
C         -0.47944        1.54863       -1.94715
C          1.34470        1.03260        0.43730
C         -1.00203        2.92137       -1.56525
C          3.07771       -0.13829       -0.63909
H         -1.85465        0.36361       -0.77685
H         -0.36184       -0.47505       -1.18776
H         -0.59460        1.82110        0.84740
H         -0.41860        0.10880        1.23690
H         -0.92902        1.25830       -2.90275
H          1.59965        1.83815       -0.26207
H          1.69782        1.31438        1.43668
H          1.15297        2.32945       -2.89740
H          1.37396        0.80288       -2.37306
H         -0.58654        4.80658       -1.84095
H          2.80004       -1.87895       -1.75799
H          4.28135       -1.04378       -2.09130
H          4.88421        0.80285       -1.10312
H          3.95634        1.62073        0.10182
