#p m062X def2TZVP opt freq
 
6322 arginine
 
0 1
O         -1.71978       -1.81823        0.17500
O          0.15300       -2.99686       -0.32613
N         -0.81215       -1.15207       -2.68963
N          1.85621        1.39565        1.75985
N          1.04231        3.54517        1.46128
N          1.24368        2.80376        3.60709
C         -0.76980        0.49290       -0.86970
C         -0.17130        0.87480        0.49210
C         -0.21110       -0.83782       -1.39583
C          1.34470        1.03260        0.43730
C         -0.54597       -2.00447       -0.48469
C          1.41219        2.49998        2.27446
H         -0.56446        1.28299       -1.60171
H         -1.86124        0.42057       -0.77995
H         -0.59460        1.82110        0.84740
H         -0.41860        0.10880        1.23690
H          0.87726       -0.78281       -1.50549
H          1.79439        0.09190        0.09690
H          1.58308        1.81640       -0.29186
H         -0.37119       -1.98402       -3.08048
H         -0.62275       -0.39667       -3.34738
H         -1.92723       -2.56961        0.77044
H          1.10960        3.47246        0.45192
H          0.69297        4.41696        1.84376
H          0.88564        3.70792        3.89562
H          1.46538        2.14459        4.34472
