#p m062X def2TZVP opt freq
 
6322 arginine
 
0 1
O         -0.44417        3.37920       -0.41334
O         -1.84411        3.55283       -2.19031
N          0.96339        1.70035       -2.11789
N          1.85621        1.39565        1.75985
N          1.84269        2.91038        3.51411
N          0.51086        3.38542        1.72656
C         -0.76980        0.49290       -0.86970
C         -0.17130        0.87480        0.49210
C         -0.47944        1.54863       -1.94715
C          1.34470        1.03260        0.43730
C         -1.00203        2.92137       -1.56525
C          1.41219        2.49998        2.27446
H         -1.85465        0.36361       -0.77685
H         -0.36184       -0.47505       -1.18776
H         -0.59460        1.82110        0.84740
H         -0.41860        0.10880        1.23690
H         -0.92902        1.25830       -2.90275
H          1.79439        0.09190        0.09690
H          1.58308        1.81640       -0.29186
H          1.15297        2.32945       -2.89740
H          1.37396        0.80288       -2.37306
H         -0.79227        4.26190       -0.16466
H          2.51002        2.36125        4.04490
H          1.50755        3.77038        3.93415
H          0.23398        4.22448        2.22482
H          0.09413        3.23846        0.81416
