#p m062X def2TZVP opt freq
 
6322 arginine
 
0 1
O         -2.74338        2.62653       -1.31425
O         -3.68869        1.78568        0.56909
N         -2.81204       -0.02701       -2.12621
N          1.85621        1.39565        1.75985
N          3.86507        2.02147        0.78782
N          3.30081        3.04211        2.74605
C         -0.76980        0.49290       -0.86970
C         -0.17130        0.87480        0.49210
C         -2.29663        0.33541       -0.80828
C          1.34470        1.03260        0.43730
C         -2.99490        1.62787       -0.42705
C          2.93035        2.12145        1.79121
H         -0.32590       -0.44586       -1.22172
H         -0.51159        1.26182       -1.60903
H         -0.59460        1.82110        0.84740
H         -0.41860        0.10880        1.23690
H         -2.57585       -0.43785       -0.08462
H          1.79439        0.09190        0.09690
H          1.58308        1.81640       -0.29186
H         -3.81031       -0.22392       -2.06261
H         -2.37299       -0.89210       -2.43923
H         -3.18800        3.46267       -1.05862
H          3.73294        1.38313        0.01086
H          4.71156        2.57985        0.79384
H          4.17192        3.55568        2.66641
H          2.72512        3.24352        3.55584
