#p m062X def2TZVP opt freq
 
6322 arginine
 
0 1
O         -4.23698       -0.23355       -2.07956
O         -2.24071       -0.32202       -3.15411
N         -2.64995       -0.71204        0.14667
N          1.70236        2.08283       -0.51753
N          0.03143        3.42406        0.36626
N          0.62010        3.79904       -1.80344
C         -0.76980        0.49290       -0.86970
C         -0.17130        0.87480        0.49210
C         -2.29663        0.33541       -0.80828
C          1.34470        1.03260        0.43730
C         -2.88600       -0.09554       -2.13881
C          0.84791        3.04573       -0.67331
H         -0.32590       -0.44586       -1.22172
H         -0.51159        1.26182       -1.60903
H         -0.59460        1.82110        0.84740
H         -0.41860        0.10880        1.23690
H         -2.76958        1.27596       -0.50617
H          1.71920        1.28008        1.43806
H          1.77971        0.07387        0.12998
H         -3.66280       -0.74949        0.25661
H         -2.27470       -0.47834        1.06521
H         -4.61259       -0.52216       -2.93850
H          0.08174        2.96057        1.26696
H         -0.64334        4.17424        0.26489
H         -0.08040        4.53266       -1.80987
H          1.13747        3.65503       -2.66328
