#p m062X def2TZVP opt freq
 
6322 arginine
 
0 1
O         -1.35071        3.65734       -2.65358
O         -1.08714        3.34886       -0.42133
N          0.96339        1.70035       -2.11789
N          1.96196       -0.22596        0.01585
N          3.94066        0.90770       -0.39839
N          4.10492       -1.30673        0.11550
C         -0.76980        0.49290       -0.86970
C         -0.17130        0.87480        0.49210
C         -0.47944        1.54863       -1.94715
C          1.34470        1.03260        0.43730
C         -1.00203        2.92137       -1.56525
C          3.25539       -0.23981       -0.07571
H         -1.85465        0.36361       -0.77685
H         -0.36184       -0.47505       -1.18776
H         -0.59460        1.82110        0.84740
H         -0.41860        0.10880        1.23690
H         -0.92902        1.25830       -2.90275
H          1.59965        1.83815       -0.26207
H          1.69782        1.31438        1.43668
H          1.15297        2.32945       -2.89740
H          1.37396        0.80288       -2.37306
H         -1.67808        4.54738       -2.40293
H          3.45111        1.77926       -0.56966
H          4.95177        0.91789       -0.47521
H          5.10871       -1.19964        0.01613
H          3.76706       -2.23015        0.36226
