#p m062X def2TZVP opt freq
 
6322 arginine
 
0 1
O         -1.93257       -0.24823       -3.09556
O         -4.07792       -0.26877       -2.35755
N         -2.64995       -0.71204        0.14667
N          1.70236        2.08283       -0.51753
N          1.00906        3.67922        1.01312
N          0.92265        4.25278       -1.19105
C         -0.76980        0.49290       -0.86970
C         -0.17130        0.87480        0.49210
C         -2.29663        0.33541       -0.80828
C          1.34470        1.03260        0.43730
C         -2.88600       -0.09554       -2.13881
C          1.23967        3.27055       -0.27929
H         -0.32590       -0.44586       -1.22172
H         -0.51159        1.26182       -1.60903
H         -0.59460        1.82110        0.84740
H         -0.41860        0.10880        1.23690
H         -2.76958        1.27596       -0.50617
H          1.71920        1.28008        1.43806
H          1.77971        0.07387        0.12998
H         -3.66280       -0.74949        0.25661
H         -2.27470       -0.47834        1.06521
H         -2.31874       -0.51665       -3.95637
H          1.19486        3.06411        1.79781
H          0.64739        4.60360        1.22063
H          0.56473        5.15192       -0.88709
H          1.03440        4.12050       -2.18992
