#p m062X def2TZVP opt freq
 
6322 arginine
 
0 1
O         -4.01370       -0.83823       -1.98260
O         -2.40865        0.16154       -3.23634
N         -2.64995       -0.71204        0.14667
N          1.96196       -0.22596        0.01585
N          2.29269       -2.48054        0.43951
N          1.00848       -1.32572        1.92677
C         -0.76980        0.49290       -0.86970
C         -0.17130        0.87480        0.49210
C         -2.29663        0.33541       -0.80828
C          1.34470        1.03260        0.43730
C         -2.88600       -0.09554       -2.13881
C          1.74919       -1.26092        0.76758
H         -0.32590       -0.44586       -1.22172
H         -0.51159        1.26182       -1.60903
H         -0.59460        1.82110        0.84740
H         -0.41860        0.10880        1.23690
H         -2.76958        1.27596       -0.50617
H          1.59965        1.83815       -0.26207
H          1.69782        1.31438        1.43668
H         -3.66280       -0.74949        0.25661
H         -2.27470       -0.47834        1.06521
H         -4.38547       -1.12335       -2.84438
H          2.86534       -2.59248       -0.39005
H          2.13814       -3.30192        1.01379
H          0.91008       -2.19756        2.43585
H          0.53913       -0.51542        2.31518
