#p m062X def2TZVP opt freq
 
6322 arginine
 
0 1
O         -3.52629       -0.17363        1.17505
O         -2.39345       -1.88076        0.20041
N         -2.90908        1.59251       -0.38572
N          1.85621        1.39565        1.75985
N          3.64916        2.44811        2.78439
N          4.13301        0.94572        1.14017
C         -0.76980        0.49290       -0.86970
C         -0.17130        0.87480        0.49210
C         -2.29663        0.33541       -0.80828
C          1.34470        1.03260        0.43730
C         -2.72880       -0.70349        0.21020
C          3.13777        1.56382        1.86406
H         -0.32590       -0.44586       -1.22172
H         -0.51159        1.26182       -1.60903
H         -0.59460        1.82110        0.84740
H         -0.41860        0.10880        1.23690
H         -2.69463        0.04949       -1.78778
H          1.79439        0.09190        0.09690
H          1.58308        1.81640       -0.29186
H         -3.92427        1.51471       -0.43751
H         -2.64931        2.33468       -1.03444
H         -3.79478       -0.84601        1.83685
H          3.03838        2.98119        3.39381
H          4.64795        2.59427        2.88148
H          5.11049        1.15767        1.30915
H          3.93279        0.26106        0.41982
