#p m062X def2TZVP opt freq
 
6322 arginine
 
0 1
O         -2.30543        2.72364       -0.84133
O         -4.04346        1.70282        0.20021
N         -2.81204       -0.02701       -2.12621
N          1.96196       -0.22596        0.01585
N          4.01566        0.56073        0.74760
N          3.72131       -1.69929        0.72594
C         -0.76980        0.49290       -0.86970
C         -0.17130        0.87480        0.49210
C         -2.29663        0.33541       -0.80828
C          1.34470        1.03260        0.43730
C         -2.99490        1.62787       -0.42705
C          3.15245       -0.47209        0.46717
H         -0.32590       -0.44586       -1.22172
H         -0.51159        1.26182       -1.60903
H         -0.59460        1.82110        0.84740
H         -0.41860        0.10880        1.23690
H         -2.57585       -0.43785       -0.08462
H          1.59965        1.83815       -0.26207
H          1.69782        1.31438        1.43668
H         -3.81031       -0.22392       -2.06261
H         -2.37299       -0.89210       -2.43923
H         -2.75478        3.55670       -0.58390
H          3.73958        1.52653        0.60755
H          4.95065        0.38953        1.10094
H          4.66909       -1.77155        1.08012
H          3.22250       -2.56924        0.57730
