#p m062X def2TZVP opt freq
 
6322 arginine
 
0 1
O          0.56928       -2.62042       -0.01086
O         -1.67802       -2.38190       -0.21168
N         -0.81215       -1.15207       -2.68963
N          1.96196       -0.22596        0.01585
N          3.33309        0.95576       -1.43176
N          4.11818       -1.04025       -0.66083
C         -0.76980        0.49290       -0.86970
C         -0.17130        0.87480        0.49210
C         -0.21110       -0.83782       -1.39583
C          1.34470        1.03260        0.43730
C         -0.54597       -2.00447       -0.48469
C          3.07771       -0.13829       -0.63909
H         -0.56446        1.28299       -1.60171
H         -1.86124        0.42057       -0.77995
H         -0.59460        1.82110        0.84740
H         -0.41860        0.10880        1.23690
H          0.87726       -0.78281       -1.50549
H          1.59965        1.83815       -0.26207
H          1.69782        1.31438        1.43668
H         -0.37119       -1.98402       -3.08048
H         -0.62275       -0.39667       -3.34738
H          0.34843       -3.38005        0.56910
H          2.65881        1.70839       -1.51842
H          4.19909        1.04330       -1.95208
H          4.94968       -0.86540       -1.21489
H          4.09740       -1.90343       -0.12958
