#p m062X def2TZVP opt freq
 
6322 arginine
 
0 1
O         -1.93257       -0.24823       -3.09556
O         -4.07792       -0.26877       -2.35755
N         -2.64995       -0.71204        0.14667
N          1.96196       -0.22596        0.01585
N          3.53800        0.00781        1.69914
N          3.07016       -2.11274        1.00692
C         -0.76980        0.49290       -0.86970
C         -0.17130        0.87480        0.49210
C         -2.29663        0.33541       -0.80828
C          1.34470        1.03260        0.43730
C         -2.88600       -0.09554       -2.13881
C          2.79647       -0.77290        0.84408
H         -0.32590       -0.44586       -1.22172
H         -0.51159        1.26182       -1.60903
H         -0.59460        1.82110        0.84740
H         -0.41860        0.10880        1.23690
H         -2.76958        1.27596       -0.50617
H          1.59965        1.83815       -0.26207
H          1.69782        1.31438        1.43668
H         -3.66280       -0.74949        0.25661
H         -2.27470       -0.47834        1.06521
H         -2.31874       -0.51665       -3.95637
H          3.44694        1.01792        1.69777
H          4.19601       -0.40021        2.35404
H          3.74862       -2.42789        1.69197
H          2.60963       -2.82985        0.45792
