#p m062X def2TZVP opt freq
 
6322 arginine
 
0 1
O         -2.46833        1.10060       -3.19149
O         -0.50403        1.00762       -4.32307
N         -1.05055        2.83332       -1.55050
N          1.85621        1.39565        1.75985
N          1.49323        1.00614        4.01563
N          1.49857       -0.81080        2.63959
C         -0.76980        0.49290       -0.86970
C         -0.17130        0.87480        0.49210
C         -0.47944        1.54863       -1.94715
C          1.34470        1.03260        0.43730
C         -1.11575        1.20192       -3.28068
C          1.63060        0.55747        2.72322
H         -1.85465        0.36361       -0.77685
H         -0.36184       -0.47505       -1.18776
H         -0.59460        1.82110        0.84740
H         -0.41860        0.10880        1.23690
H          0.59983        1.66193       -2.09524
H          1.79439        0.09190        0.09690
H          1.58308        1.81640       -0.29186
H         -0.77576        3.55259       -2.21869
H         -0.66095        3.11834       -0.65267
H         -2.87458        0.86625       -4.05301
H          1.56547        1.99309        4.23772
H          1.31678        0.36716        4.78305
H          1.32198       -1.37018        3.46714
H          1.56924       -1.30857        1.75927
