#p m062X def2TZVP opt freq
 
6322 arginine
 
0 1
O         -4.23680        1.71877       -0.97214
O         -2.51005        2.51128        0.26796
N         -2.81204       -0.02701       -2.12621
N          1.70236        2.08283       -0.51753
N          3.39296        3.59066       -1.00775
N          4.02010        1.45184       -0.53136
C         -0.76980        0.49290       -0.86970
C         -0.17130        0.87480        0.49210
C         -2.29663        0.33541       -0.80828
C          1.34470        1.03260        0.43730
C         -2.99490        1.62787       -0.42705
C          2.96665        2.32813       -0.66896
H         -0.32590       -0.44586       -1.22172
H         -0.51159        1.26182       -1.60903
H         -0.59460        1.82110        0.84740
H         -0.41860        0.10880        1.23690
H         -2.57585       -0.43785       -0.08462
H          1.71920        1.28008        1.43806
H          1.77971        0.07387        0.12998
H         -3.81031       -0.22392       -2.06261
H         -2.37299       -0.89210       -2.43923
H         -4.68041        2.55998       -0.73182
H          2.73175        4.34741       -1.14465
H          4.37686        3.80304       -1.13109
H          4.97642        1.75779       -0.67561
H          3.88547        0.47861       -0.28150
