#p m062X def2TZVP opt freq
 
6322 arginine
 
0 1
O         -2.38932       -1.29019       -2.55575
O         -3.69635        0.54929       -2.79154
N         -2.64995       -0.71204        0.14667
N          1.85621        1.39565        1.75985
N          3.99590        0.84677        1.05810
N          3.56676        0.68848        3.29094
C         -0.76980        0.49290       -0.86970
C         -0.17130        0.87480        0.49210
C         -2.29663        0.33541       -0.80828
C          1.34470        1.03260        0.43730
C         -2.88600       -0.09554       -2.13881
C          3.05645        0.99993        2.05030
H         -0.32590       -0.44586       -1.22172
H         -0.51159        1.26182       -1.60903
H         -0.59460        1.82110        0.84740
H         -0.41860        0.10880        1.23690
H         -2.76958        1.27596       -0.50617
H          1.79439        0.09190        0.09690
H          1.58308        1.81640       -0.29186
H         -3.66280       -0.74949        0.25661
H         -2.27470       -0.47834        1.06521
H         -2.76496       -1.55997       -3.42078
H          3.76930        1.03869        0.08834
H          4.93966        0.53822        1.26421
H          4.52915        0.38682        3.39929
H          3.00999        0.74907        4.13597
