#p m062X def2TZVP opt freq
 
6322 arginine
 
0 1
O          0.40196       -2.97766       -0.52977
O         -1.55552       -2.09413        0.20182
N         -0.81215       -1.15207       -2.68963
N          1.70236        2.08283       -0.51753
N          2.18388        3.49910        1.25287
N          3.27665        3.88701       -0.70930
C         -0.76980        0.49290       -0.86970
C         -0.17130        0.87480        0.49210
C         -0.21110       -0.83782       -1.39583
C          1.34470        1.03260        0.43730
C         -0.54597       -2.00447       -0.48469
C          2.36133        3.09706       -0.04996
H         -0.56446        1.28299       -1.60171
H         -1.86124        0.42057       -0.77995
H         -0.59460        1.82110        0.84740
H         -0.41860        0.10880        1.23690
H          0.87726       -0.78281       -1.50549
H          1.71920        1.28008        1.43806
H          1.77971        0.07387        0.12998
H         -0.37119       -1.98402       -3.08048
H         -0.62275       -0.39667       -3.34738
H          0.17659       -3.73422        0.05246
H          1.53925        3.01387        1.86738
H          2.68923        4.28965        1.63758
H          3.73406        4.66053       -0.23879
H          3.52938        3.72900       -1.67827
