#p m062X def2TZVP opt freq
 
6322 arginine
 
0 1
O         -2.93095       -0.16134        1.44020
O         -2.86360       -1.89871       -0.01739
N         -2.90908        1.59251       -0.38572
N          1.70236        2.08283       -0.51753
N          3.84068        2.13676        0.37504
N          3.61000        2.78341       -1.79830
C         -0.76980        0.49290       -0.86970
C         -0.17130        0.87480        0.49210
C         -2.29663        0.33541       -0.80828
C          1.34470        1.03260        0.43730
C         -2.72880       -0.70349        0.21020
C          2.96665        2.32813       -0.66896
H         -0.32590       -0.44586       -1.22172
H         -0.51159        1.26182       -1.60903
H         -0.59460        1.82110        0.84740
H         -0.41860        0.10880        1.23690
H         -2.69463        0.04949       -1.78778
H          1.71920        1.28008        1.43806
H          1.77971        0.07387        0.12998
H         -3.92427        1.51471       -0.43751
H         -2.64931        2.33468       -1.03444
H         -3.19999       -0.83773        2.09768
H          3.51534        1.80307        1.27582
H          4.83273        2.32289        0.27725
H          4.61200        2.94129       -1.80094
H          3.11593        2.97490       -2.66257
