#p m062X def2TZVP opt freq
 
6322 arginine
 
0 1
O         -3.54153       -1.28285       -2.04775
O         -2.77774        0.52267       -3.18982
N         -2.64995       -0.71204        0.14667
N          1.85621        1.39565        1.75985
N          3.20089        3.00506        0.77311
N          3.90921        2.14112        2.75973
C         -0.76980        0.49290       -0.86970
C         -0.17130        0.87480        0.49210
C         -2.29663        0.33541       -0.80828
C          1.34470        1.03260        0.43730
C         -2.88600       -0.09554       -2.13881
C          2.93035        2.12145        1.79121
H         -0.32590       -0.44586       -1.22172
H         -0.51159        1.26182       -1.60903
H         -0.59460        1.82110        0.84740
H         -0.41860        0.10880        1.23690
H         -2.76958        1.27596       -0.50617
H          1.79439        0.09190        0.09690
H          1.58308        1.81640       -0.29186
H         -3.66280       -0.74949        0.25661
H         -2.27470       -0.47834        1.06521
H         -3.91188       -1.56272       -2.91185
H          2.57050        3.10461       -0.01512
H          4.03526        3.58138        0.77862
H          4.71252        2.75512        2.67825
H          3.86696        1.55244        3.58399
