#p m062X def2TZVP opt freq
 
6322 arginine
 
0 1
O         -1.43976        2.31083       -3.99694
O         -1.34343        0.06661       -3.67788
N         -1.05055        2.83332       -1.55050
N          1.70236        2.08283       -0.51753
N          1.00906        3.67922        1.01312
N          0.92265        4.25278       -1.19105
C         -0.76980        0.49290       -0.86970
C         -0.17130        0.87480        0.49210
C         -0.47944        1.54863       -1.94715
C          1.34470        1.03260        0.43730
C         -1.11575        1.20192       -3.28068
C          1.23967        3.27055       -0.27929
H         -1.85465        0.36361       -0.77685
H         -0.36184       -0.47505       -1.18776
H         -0.59460        1.82110        0.84740
H         -0.41860        0.10880        1.23690
H          0.59983        1.66193       -2.09524
H          1.71920        1.28008        1.43806
H          1.77971        0.07387        0.12998
H         -0.77576        3.55259       -2.21869
H         -0.66095        3.11834       -0.65267
H         -1.86009        2.08250       -4.85331
H          1.19486        3.06411        1.79781
H          0.64739        4.60360        1.22063
H          0.56473        5.15192       -0.88709
H          1.03440        4.12050       -2.18992
