#p m062X def2TZVP opt freq
 
6322 arginine
 
0 1
O         -3.94700       -0.42177        0.74342
O         -2.06686       -1.67646        0.54739
N         -2.90908        1.59251       -0.38572
N          1.96196       -0.22596        0.01585
N          3.41366       -1.09390       -1.56885
N          4.04419        0.83731       -0.53557
C         -0.76980        0.49290       -0.86970
C         -0.17130        0.87480        0.49210
C         -2.29663        0.33541       -0.80828
C          1.34470        1.03260        0.43730
C         -2.72880       -0.70349        0.21020
C          3.07771       -0.13829       -0.63909
H         -0.32590       -0.44586       -1.22172
H         -0.51159        1.26182       -1.60903
H         -0.59460        1.82110        0.84740
H         -0.41860        0.10880        1.23690
H         -2.69463        0.04949       -1.78778
H          1.59965        1.83815       -0.26207
H          1.69782        1.31438        1.43668
H         -3.92427        1.51471       -0.43751
H         -2.64931        2.33468       -1.03444
H         -4.21784       -1.08989        1.40857
H          2.80004       -1.87895       -1.75799
H          4.28135       -1.04378       -2.09130
H          4.88421        0.80285       -1.10312
H          3.95634        1.62073        0.10182
