#p m062X def2TZVP opt freq
 
6322 arginine
 
0 1
O         -1.43976        2.31083       -3.99694
O         -1.34343        0.06661       -3.67788
N         -1.05055        2.83332       -1.55050
N          1.85621        1.39565        1.75985
N          2.99965        2.93706        3.05932
N          2.74647        3.43234        0.84904
C         -0.76980        0.49290       -0.86970
C         -0.17130        0.87480        0.49210
C         -0.47944        1.54863       -1.94715
C          1.34470        1.03260        0.43730
C         -1.11575        1.20192       -3.28068
C          2.48977        2.52338        1.85127
H         -1.85465        0.36361       -0.77685
H         -0.36184       -0.47505       -1.18776
H         -0.59460        1.82110        0.84740
H         -0.41860        0.10880        1.23690
H          0.59983        1.66193       -2.09524
H          1.79439        0.09190        0.09690
H          1.58308        1.81640       -0.29186
H         -0.77576        3.55259       -2.21869
H         -0.66095        3.11834       -0.65267
H         -1.86009        2.08250       -4.85331
H          2.89036        2.37246        3.89472
H          3.49790        3.81542        3.15200
H          3.25567        4.28895        1.03845
H          2.44324        3.28400       -0.10688
