#p m062X def2TZVP opt freq
 
6322 arginine
 
0 1
O         -2.30543        2.72364       -0.84133
O         -4.04346        1.70282        0.20021
N         -2.81204       -0.02701       -2.12621
N          1.70236        2.08283       -0.51753
N          2.77762        2.40183       -2.54584
N          1.31080        0.66230       -2.41465
C         -0.76980        0.49290       -0.86970
C         -0.17130        0.87480        0.49210
C         -2.29663        0.33541       -0.80828
C          1.34470        1.03260        0.43730
C         -2.99490        1.62787       -0.42705
C          1.89635        1.71391       -1.74546
H         -0.32590       -0.44586       -1.22172
H         -0.51159        1.26182       -1.60903
H         -0.59460        1.82110        0.84740
H         -0.41860        0.10880        1.23690
H         -2.57585       -0.43785       -0.08462
H          1.71920        1.28008        1.43806
H          1.77971        0.07387        0.12998
H         -3.81031       -0.22392       -2.06261
H         -2.37299       -0.89210       -2.43923
H         -2.75478        3.55670       -0.58390
H          3.28805        3.20432       -2.19357
H          2.94331        2.12971       -3.50858
H          1.54060        0.46638       -3.38302
H          0.63674        0.04752       -1.97258
