#p m062X def2TZVP opt freq
 
6322 arginine
 
0 1
O         -1.88710       -2.17547       -0.34391
O          0.27550       -2.70908        0.08736
N         -0.81215       -1.15207       -2.68963
N          1.70236        2.08283       -0.51753
N          3.39296        3.59066       -1.00775
N          4.02010        1.45184       -0.53136
C         -0.76980        0.49290       -0.86970
C         -0.17130        0.87480        0.49210
C         -0.21110       -0.83782       -1.39583
C          1.34470        1.03260        0.43730
C         -0.54597       -2.00447       -0.48469
C          2.96665        2.32813       -0.66896
H         -0.56446        1.28299       -1.60171
H         -1.86124        0.42057       -0.77995
H         -0.59460        1.82110        0.84740
H         -0.41860        0.10880        1.23690
H          0.87726       -0.78281       -1.50549
H          1.71920        1.28008        1.43806
H          1.77971        0.07387        0.12998
H         -0.37119       -1.98402       -3.08048
H         -0.62275       -0.39667       -3.34738
H         -2.09908       -2.92378        0.25381
H          2.73175        4.34741       -1.14465
H          4.37686        3.80304       -1.13109
H          4.97642        1.75779       -0.67561
H          3.88547        0.47861       -0.28150
