#p m062X def2TZVP opt freq
 
6322 arginine
 
0 1
O         -1.26819       -1.61633        0.59949
O         -0.19840       -3.16369       -0.66890
N         -0.81215       -1.15207       -2.68963
N          1.96196       -0.22596        0.01585
N          1.72019       -2.52198        0.22041
N          1.53295       -1.28783        2.12739
C         -0.76980        0.49290       -0.86970
C         -0.17130        0.87480        0.49210
C         -0.21110       -0.83782       -1.39583
C          1.34470        1.03260        0.43730
C         -0.54597       -2.00447       -0.48469
C          1.74919       -1.26092        0.76758
H         -0.56446        1.28299       -1.60171
H         -1.86124        0.42057       -0.77995
H         -0.59460        1.82110        0.84740
H         -0.41860        0.10880        1.23690
H          0.87726       -0.78281       -1.50549
H          1.59965        1.83815       -0.26207
H          1.69782        1.31438        1.43668
H         -0.37119       -1.98402       -3.08048
H         -0.62275       -0.39667       -3.34738
H         -1.47353       -2.37147        1.19089
H          1.86330       -2.66493       -0.77342
H          1.55514       -3.34404        0.79079
H          1.37604       -2.16379        2.61422
H          1.52392       -0.44506        2.69078
