#p m062X def2TZVP opt freq
 
6322 arginine
 
0 1
O          0.40752       -2.20357        0.46343
O         -1.53879       -2.71351       -0.58511
N         -0.81215       -1.15207       -2.68963
N          1.70236        2.08283       -0.51753
N          0.97498        4.13327       -1.31666
N          0.95349        3.83671        0.94307
C         -0.76980        0.49290       -0.86970
C         -0.17130        0.87480        0.49210
C         -0.21110       -0.83782       -1.39583
C          1.34470        1.03260        0.43730
C         -0.54597       -2.00447       -0.48469
C          1.23967        3.27055       -0.27929
H         -0.56446        1.28299       -1.60171
H         -1.86124        0.42057       -0.77995
H         -0.59460        1.82110        0.84740
H         -0.41860        0.10880        1.23690
H          0.87726       -0.78281       -1.50549
H          1.71920        1.28008        1.43806
H          1.77971        0.07387        0.12998
H         -0.37119       -1.98402       -3.08048
H         -0.62275       -0.39667       -3.34738
H          0.19237       -2.96476        1.04350
H          1.13566        3.85897       -2.27975
H          0.61314        5.06611       -1.15163
H          0.59271        4.78244        1.00918
H          1.08762        3.33782        1.81534
