#p m062X def2TZVP opt freq
 
6322 arginine
 
0 1
O         -2.74338        2.62653       -1.31425
O         -3.68869        1.78568        0.56909
N         -2.81204       -0.02701       -2.12621
N          1.70236        2.08283       -0.51753
N          3.38483        3.29883       -1.54836
N          4.02753        1.71925       -0.03620
C         -0.76980        0.49290       -0.86970
C         -0.17130        0.87480        0.49210
C         -2.29663        0.33541       -0.80828
C          1.34470        1.03260        0.43730
C         -2.99490        1.62787       -0.42705
C          2.96665        2.32813       -0.66896
H         -0.32590       -0.44586       -1.22172
H         -0.51159        1.26182       -1.60903
H         -0.59460        1.82110        0.84740
H         -0.41860        0.10880        1.23690
H         -2.57585       -0.43785       -0.08462
H          1.71920        1.28008        1.43806
H          1.77971        0.07387        0.12998
H         -3.81031       -0.22392       -2.06261
H         -2.37299       -0.89210       -2.43923
H         -3.18800        3.46267       -1.05862
H          2.71755        3.83655       -2.09077
H          4.36861        3.50578       -1.68150
H          4.98305        1.99525       -0.23556
H          3.89912        0.98162        0.64728
