#p m062X def2TZVP opt freq
 
6322 arginine
 
0 1
O         -2.30543        2.72364       -0.84133
O         -4.04346        1.70282        0.20021
N         -2.81204       -0.02701       -2.12621
N          1.85621        1.39565        1.75985
N          3.95069        1.40020        0.76730
N          3.85677        1.90598        2.98769
C         -0.76980        0.49290       -0.86970
C         -0.17130        0.87480        0.49210
C         -2.29663        0.33541       -0.80828
C          1.34470        1.03260        0.43730
C         -2.99490        1.62787       -0.42705
C          3.13777        1.56382        1.86406
H         -0.32590       -0.44586       -1.22172
H         -0.51159        1.26182       -1.60903
H         -0.59460        1.82110        0.84740
H         -0.41860        0.10880        1.23690
H         -2.57585       -0.43785       -0.08462
H          1.79439        0.09190        0.09690
H          1.58308        1.81640       -0.29186
H         -3.81031       -0.22392       -2.06261
H         -2.37299       -0.89210       -2.43923
H         -2.75478        3.55670       -0.58390
H          3.56615        1.14673       -0.13630
H          4.95501        1.52683        0.82779
H          4.86509        2.01037        2.95102
H          3.41395        2.06761        3.88520
