#p m062X def2TZVP opt freq
 
6322 arginine
 
0 1
O         -4.15539        1.40392        0.24438
O         -2.59399        2.75166       -0.70072
N         -2.81204       -0.02701       -2.12621
N          1.70236        2.08283       -0.51753
N          0.97498        4.13327       -1.31666
N          0.95349        3.83671        0.94307
C         -0.76980        0.49290       -0.86970
C         -0.17130        0.87480        0.49210
C         -2.29663        0.33541       -0.80828
C          1.34470        1.03260        0.43730
C         -2.99490        1.62787       -0.42705
C          1.23967        3.27055       -0.27929
H         -0.32590       -0.44586       -1.22172
H         -0.51159        1.26182       -1.60903
H         -0.59460        1.82110        0.84740
H         -0.41860        0.10880        1.23690
H         -2.57585       -0.43785       -0.08462
H          1.71920        1.28008        1.43806
H          1.77971        0.07387        0.12998
H         -3.81031       -0.22392       -2.06261
H         -2.37299       -0.89210       -2.43923
H         -4.60859        2.24142        0.47972
H          1.13566        3.85897       -2.27975
H          0.61314        5.06611       -1.15163
H          0.59271        4.78244        1.00918
H          1.08762        3.33782        1.81534
