#p m062X def2TZVP opt freq
 
6322 arginine
 
0 1
O          1.58132        0.55560       -2.63415
O          1.64133        2.74510       -2.04246
N         -1.06947        1.13639       -3.21831
N          1.85621        1.39565        1.75985
N          3.18668        0.58343        3.47513
N          1.64676       -0.84727        2.59394
C         -0.76980        0.49290       -0.86970
C         -0.17130        0.87480        0.49210
C         -0.47944        1.54863       -1.94715
C          1.34470        1.03260        0.43730
C          1.00654        1.71177       -2.20918
C          2.18629        0.41892        2.54634
H         -1.85465        0.36361       -0.77685
H         -0.36184       -0.47505       -1.18776
H         -0.59460        1.82110        0.84740
H         -0.41860        0.10880        1.23690
H         -0.89038        2.52096       -1.65513
H          1.79439        0.09190        0.09690
H          1.58308        1.81640       -0.29186
H         -0.95832        1.88056       -3.90621
H         -2.07390        1.00617       -3.10303
H          2.54344        0.66272       -2.79233
H          3.68121        1.46468        3.56148
H          3.45994       -0.16776        4.09915
H          1.98744       -1.53577        3.25639
H          0.89558       -1.13899        1.97882
