#p m062X def2TZVP opt freq
 
6322 arginine
 
0 1
O         -1.26819       -1.61633        0.59949
O         -0.19840       -3.16369       -0.66890
N         -0.81215       -1.15207       -2.68963
N          1.70236        2.08283       -0.51753
N          2.90995        4.05459       -0.67839
N          3.92436        2.30243        0.36833
C         -0.76980        0.49290       -0.86970
C         -0.17130        0.87480        0.49210
C         -0.21110       -0.83782       -1.39583
C          1.34470        1.03260        0.43730
C         -0.54597       -2.00447       -0.48469
C          2.79069        2.74523       -0.27610
H         -0.56446        1.28299       -1.60171
H         -1.86124        0.42057       -0.77995
H         -0.59460        1.82110        0.84740
H         -0.41860        0.10880        1.23690
H          0.87726       -0.78281       -1.50549
H          1.71920        1.28008        1.43806
H          1.77971        0.07387        0.12998
H         -0.37119       -1.98402       -3.08048
H         -0.62275       -0.39667       -3.34738
H         -1.47353       -2.37147        1.19089
H          2.15502        4.52282       -1.16774
H          3.75249        4.58984       -0.49954
H          4.72243        2.91427        0.50128
H          4.00628        1.36024        0.73347
