#p m062X def2TZVP opt freq
 
6322 arginine
 
0 1
O          1.89569       -1.76694       -0.76104
O          1.93505       -0.03053       -2.22081
N         -0.51699       -1.91196       -0.45424
N          1.70236        2.08283       -0.51753
N          2.22217        4.33907       -0.62312
N          3.24126        3.11774        1.00923
C         -0.76980        0.49290       -0.86970
C         -0.17130        0.87480        0.49210
C         -0.21110       -0.83782       -1.39583
C          1.34470        1.03260        0.43730
C          1.30058       -0.81630       -1.52904
C          2.36133        3.09706       -0.04996
H         -0.56446        1.28299       -1.60171
H         -1.86124        0.42057       -0.77995
H         -0.59460        1.82110        0.84740
H         -0.41860        0.10880        1.23690
H         -0.64343       -1.07827       -2.37300
H          1.71920        1.28008        1.43806
H          1.77971        0.07387        0.12998
H         -0.23023       -2.80710       -0.84902
H         -1.52572       -1.97259       -0.32033
H          2.87295       -1.74279       -0.84207
H          1.60663        4.48381       -1.41607
H          2.72859        5.14476       -0.27273
H          3.70308        3.97675        1.28809
H          3.45925        2.28716        1.54808
