#p m062X def2TZVP opt freq
 
6322 arginine
 
0 1
O         -1.71978       -1.81823        0.17500
O          0.15300       -2.99686       -0.32613
N         -0.81215       -1.15207       -2.68963
N          1.70236        2.08283       -0.51753
N          3.90182        1.62002        0.04835
N          3.55398        3.25681       -1.49913
C         -0.76980        0.49290       -0.86970
C         -0.17130        0.87480        0.49210
C         -0.21110       -0.83782       -1.39583
C          1.34470        1.03260        0.43730
C         -0.54597       -2.00447       -0.48469
C          2.96665        2.32813       -0.66896
H         -0.56446        1.28299       -1.60171
H         -1.86124        0.42057       -0.77995
H         -0.59460        1.82110        0.84740
H         -0.41860        0.10880        1.23690
H          0.87726       -0.78281       -1.50549
H          1.71920        1.28008        1.43806
H          1.77971        0.07387        0.12998
H         -0.37119       -1.98402       -3.08048
H         -0.62275       -0.39667       -3.34738
H         -1.92723       -2.56961        0.77044
H          3.62236        0.89861        0.70415
H          4.89500        1.79666       -0.05530
H          4.56225        3.36185       -1.53498
H          3.01053        3.86409       -2.10214
