#p m062X def2TZVP opt freq
 
6322 arginine
 
0 1
O         -3.94700       -0.42177        0.74342
O         -2.06686       -1.67646        0.54739
N         -2.90908        1.59251       -0.38572
N          1.85621        1.39565        1.75985
N          3.48749        2.68536        2.78337
N          2.29956        3.66293        1.10172
C         -0.76980        0.49290       -0.86970
C         -0.17130        0.87480        0.49210
C         -2.29663        0.33541       -0.80828
C          1.34470        1.03260        0.43730
C         -2.72880       -0.70349        0.21020
C          2.48977        2.52338        1.85127
H         -0.32590       -0.44586       -1.22172
H         -0.51159        1.26182       -1.60903
H         -0.59460        1.82110        0.84740
H         -0.41860        0.10880        1.23690
H         -2.69463        0.04949       -1.78778
H          1.79439        0.09190        0.09690
H          1.58308        1.81640       -0.29186
H         -3.92427        1.51471       -0.43751
H         -2.64931        2.33468       -1.03444
H         -4.21784       -1.08989        1.40857
H          3.74422        1.93190        3.41186
H          3.99469        3.55909        2.87113
H          2.85863        4.49379        1.26311
H          1.60396        3.71715        0.36623
