#p m062X def2TZVP opt freq
 
6322 arginine
 
0 1
O         -2.32050       -0.38821        1.46782
O         -3.35133       -1.72549       -0.04766
N         -2.90908        1.59251       -0.38572
N          1.70236        2.08283       -0.51753
N          1.02163        3.68067        1.01723
N          2.60515        4.30877       -0.49694
C         -0.76980        0.49290       -0.86970
C         -0.17130        0.87480        0.49210
C         -2.29663        0.33541       -0.80828
C          1.34470        1.03260        0.43730
C         -2.72880       -0.70349        0.21020
C          1.79362        3.28934       -0.05112
H         -0.32590       -0.44586       -1.22172
H         -0.51159        1.26182       -1.60903
H         -0.59460        1.82110        0.84740
H         -0.41860        0.10880        1.23690
H         -2.69463        0.04949       -1.78778
H          1.71920        1.28008        1.43806
H          1.77971        0.07387        0.12998
H         -3.92427        1.51471       -0.43751
H         -2.64931        2.33468       -1.03444
H         -2.59284       -1.06727        2.12117
H          0.37150        3.03814        1.45666
H          1.07782        4.61940        1.39668
H          2.59197        5.21991       -0.05133
H          3.24217        4.19176       -1.27685
