#p m062X def2TZVP opt freq
 
6322 arginine
 
0 1
O         -0.66447       -3.17203       -1.17059
O         -0.71799       -1.92611        0.72477
N         -0.81215       -1.15207       -2.68963
N          1.70236        2.08283       -0.51753
N          1.62757        2.57815       -2.78051
N          2.36433        0.50098       -2.19974
C         -0.76980        0.49290       -0.86970
C         -0.17130        0.87480        0.49210
C         -0.21110       -0.83782       -1.39583
C          1.34470        1.03260        0.43730
C         -0.54597       -2.00447       -0.48469
C          1.89635        1.71391       -1.74546
H         -0.56446        1.28299       -1.60171
H         -1.86124        0.42057       -0.77995
H         -0.59460        1.82110        0.84740
H         -0.41860        0.10880        1.23690
H          0.87726       -0.78281       -1.50549
H          1.71920        1.28008        1.43806
H          1.77971        0.07387        0.12998
H         -0.37119       -1.98402       -3.08048
H         -0.62275       -0.39667       -3.34738
H         -0.89110       -3.92138       -0.57958
H          1.27516        3.51269       -2.60422
H          1.77221        2.30901       -3.74746
H          2.47664        0.32276       -3.19199
H          2.61460       -0.25290       -1.56985
