#p m062X def2TZVP opt freq
 
6322 arginine
 
0 1
O         -1.88710       -2.17547       -0.34391
O          0.27550       -2.70908        0.08736
N         -0.81215       -1.15207       -2.68963
N          1.70236        2.08283       -0.51753
N          2.82899        2.66020       -2.45901
N          2.95782        0.48325       -1.79638
C         -0.76980        0.49290       -0.86970
C         -0.17130        0.87480        0.49210
C         -0.21110       -0.83782       -1.39583
C          1.34470        1.03260        0.43730
C         -0.54597       -2.00447       -0.48469
C          2.45030        1.73270       -1.51729
H         -0.56446        1.28299       -1.60171
H         -1.86124        0.42057       -0.77995
H         -0.59460        1.82110        0.84740
H         -0.41860        0.10880        1.23690
H          0.87726       -0.78281       -1.50549
H          1.71920        1.28008        1.43806
H          1.77971        0.07387        0.12998
H         -0.37119       -1.98402       -3.08048
H         -0.62275       -0.39667       -3.34738
H         -2.09908       -2.92378        0.25381
H          2.53253        3.62764       -2.38986
H          3.41318        2.40675       -3.24822
H          3.53622        0.32510       -2.61453
H          2.77863       -0.31871       -1.20268
