#p m062X def2TZVP opt freq
 
6322 arginine
 
0 1
O         -2.10498        2.84734       -0.77421
O         -0.52012        3.98510       -1.93236
N          0.96339        1.70035       -2.11789
N          1.96196       -0.22596        0.01585
N          3.91149       -1.38415       -0.46365
N          4.13160        0.79268        0.17489
C         -0.76980        0.49290       -0.86970
C         -0.17130        0.87480        0.49210
C         -0.47944        1.54863       -1.94715
C          1.34470        1.03260        0.43730
C         -1.00203        2.92137       -1.56525
C          3.25539       -0.23981       -0.07571
H         -1.85465        0.36361       -0.77685
H         -0.36184       -0.47505       -1.18776
H         -0.59460        1.82110        0.84740
H         -0.41860        0.10880        1.23690
H         -0.92902        1.25830       -2.90275
H          1.59965        1.83815       -0.26207
H          1.69782        1.31438        1.43668
H          1.15297        2.32945       -2.89740
H          1.37396        0.80288       -2.37306
H         -2.44552        3.73646       -0.53830
H          3.40010       -2.23196       -0.68342
H          4.92211       -1.41580       -0.54119
H          5.13246        0.66574        0.06949
H          3.81681        1.71039        0.46892
