#p m062X def2TZVP opt freq
 
6322 arginine
 
0 1
O         -2.01803       -0.85094       -2.86248
O         -3.99973        0.20765       -2.54650
N         -2.64995       -0.71204        0.14667
N          1.85621        1.39565        1.75985
N          1.04231        3.54517        1.46128
N          1.24368        2.80376        3.60709
C         -0.76980        0.49290       -0.86970
C         -0.17130        0.87480        0.49210
C         -2.29663        0.33541       -0.80828
C          1.34470        1.03260        0.43730
C         -2.88600       -0.09554       -2.13881
C          1.41219        2.49998        2.27446
H         -0.32590       -0.44586       -1.22172
H         -0.51159        1.26182       -1.60903
H         -0.59460        1.82110        0.84740
H         -0.41860        0.10880        1.23690
H         -2.76958        1.27596       -0.50617
H          1.79439        0.09190        0.09690
H          1.58308        1.81640       -0.29186
H         -3.66280       -0.74949        0.25661
H         -2.27470       -0.47834        1.06521
H         -2.39893       -1.11858       -3.72588
H          1.10960        3.47246        0.45192
H          0.69297        4.41696        1.84376
H          0.88564        3.70792        3.89562
H          1.46538        2.14459        4.34472
