#p m062X def2TZVP opt freq
 
6288 threonine
 
0 1
O         -1.70695       -1.18661        0.34916
O          0.93366       -1.68158        0.07287
O          2.05455        0.15005       -0.65412
N          0.40530        1.86690        0.57430
C         -1.35440        0.18800        0.20430
C          0.06640        0.44880        0.72850
C         -1.52827        0.56100       -1.26267
C          1.12160       -0.33980       -0.03000
H          0.14530        0.16990        1.78570
H         -2.07482        0.76505        0.79696
H         -1.33298        1.62108       -1.44818
H         -2.55443        0.34680       -1.58304
H         -0.87826       -0.03746       -1.90999
H          1.30760        2.05150        1.01150
H         -0.27450        2.43570        1.07770
H         -1.60160       -1.41737        1.28787
H          1.62197       -2.18517       -0.41170
