#p m062X def2TZVP opt freq
 
6288 threonine
 
0 1
O         -2.31257        0.96566        0.91984
O          0.93366       -1.68158        0.07287
O          2.05455        0.15005       -0.65412
N          0.40530        1.86690        0.57430
C         -1.35440        0.18800        0.20430
C          0.06640        0.44880        0.72850
C         -1.77082       -1.27394        0.30766
C          1.12160       -0.33980       -0.03000
H          0.14530        0.16990        1.78570
H         -1.41839        0.49368       -0.84723
H         -1.11587       -1.93456       -0.26763
H         -2.79171       -1.39882       -0.07145
H         -1.79110       -1.61413        1.34859
H          1.30760        2.05150        1.01150
H         -0.27450        2.43570        1.07770
H         -2.04652        1.89789        0.84438
H          1.62197       -2.18517       -0.41170
